xflr5 v6.61

 Calculated polar for: S2027

 1 1 Reynolds number fixed          Mach number fixed         

 xtrf =   1.000 (top)        1.000 (bottom)
 Mach =   0.000     Re =     2.000 e 6     Ncrit =   9.000

  alpha     CL        CD       CDp       Cm    Top Xtr Bot Xtr   Cpmin    Chinge    XCp    
 ------- -------- --------- --------- -------- ------- ------- -------- --------- ---------
  -4.200  -0.1609   0.01078   0.00585  -0.0583  0.6322  0.0400  -1.6357   0.0000   0.0000   0.0000  -0.1258
  -4.000  -0.1362   0.01141   0.00650  -0.0586  0.6248  0.0433  -1.4855   0.0000   0.0000   0.0000  -0.1953
  -3.600  -0.0975   0.00808   0.00248  -0.0557  0.6211  0.0135  -1.6684   0.0000   0.0000   0.0000  -0.3391
  -3.400  -0.0746   0.00793   0.00228  -0.0557  0.6169  0.0126  -1.5509   0.0000   0.0000   0.0000  -0.5184
  -3.200  -0.0518   0.00780   0.00208  -0.0557  0.6100  0.0119  -1.4393   0.0000   0.0000   0.0000  -0.8545
  -3.000  -0.0291   0.00770   0.00186  -0.0557  0.6009  0.0115  -1.3276   0.0000   0.0000   0.0000  -1.7134
  -2.800  -0.0062   0.00761   0.00162  -0.0557  0.5900  0.0115  -1.2413   0.0000   0.0000   0.0000  -8.8713
  -2.400   0.0342   0.00624   0.00113  -0.0556  0.5757  0.2456  -1.0671   0.0000   0.0000   0.0000   1.9048
  -2.200   0.0565   0.00599   0.00106  -0.0558  0.5740  0.3014  -0.9388   0.0000   0.0000   0.0000   1.2514
  -2.000   0.0789   0.00575   0.00100  -0.0559  0.5715  0.3555  -0.8140   0.0000   0.0000   0.0000   0.9678
  -1.800   0.1007   0.00546   0.00096  -0.0560  0.5671  0.4261  -0.6945   0.0000   0.0000   0.0000   0.8118
  -1.600   0.1237   0.00543   0.00094  -0.0562  0.5603  0.4417  -0.6268   0.0000   0.0000   0.0000   0.7075
  -1.400   0.1459   0.00533   0.00093  -0.0562  0.5512  0.4861  -0.6445   0.0000   0.0000   0.0000   0.6375
  -1.200   0.1690   0.00537   0.00092  -0.0564  0.5401  0.4944  -0.6626   0.0000   0.0000   0.0000   0.5848
  -1.000   0.1920   0.00536   0.00092  -0.0565  0.5302  0.5134  -0.6808   0.0000   0.0000   0.0000   0.5448
  -0.800   0.2151   0.00530   0.00093  -0.0567  0.5266  0.5321  -0.6991   0.0000   0.0000   0.0000   0.5133
  -0.600   0.2385   0.00528   0.00093  -0.0569  0.5252  0.5434  -0.7188   0.0000   0.0000   0.0000   0.4878
  -0.400   0.2620   0.00529   0.00093  -0.0572  0.5229  0.5469  -0.7399   0.0000   0.0000   0.0000   0.4667
  -0.200   0.2853   0.00527   0.00094  -0.0574  0.5195  0.5642  -0.7610   0.0000   0.0000   0.0000   0.4493
   0.000   0.3083   0.00525   0.00095  -0.0575  0.5143  0.5794  -0.7820   0.0000   0.0000   0.0000   0.4345
   0.200   0.3312   0.00528   0.00097  -0.0577  0.5067  0.5900  -0.8030   0.0000   0.0000   0.0000   0.4217
   0.400   0.3541   0.00535   0.00097  -0.0578  0.4965  0.5960  -0.8240   0.0000   0.0000   0.0000   0.4105
   0.600   0.3771   0.00542   0.00099  -0.0580  0.4843  0.5987  -0.8452   0.0000   0.0000   0.0000   0.4008
   0.800   0.4004   0.00546   0.00101  -0.0582  0.4780  0.6021  -0.8666   0.0000   0.0000   0.0000   0.3921
   1.000   0.4237   0.00544   0.00103  -0.0584  0.4768  0.6167  -0.8882   0.0000   0.0000   0.0000   0.3844
   1.200   0.4469   0.00543   0.00106  -0.0586  0.4750  0.6285  -0.9109   0.0000   0.0000   0.0000   0.3775
   1.400   0.4701   0.00543   0.00109  -0.0588  0.4719  0.6368  -0.9355   0.0000   0.0000   0.0000   0.3712
   1.600   0.4932   0.00546   0.00111  -0.0590  0.4673  0.6441  -0.9601   0.0000   0.0000   0.0000   0.3655
   1.800   0.5162   0.00552   0.00114  -0.0591  0.4608  0.6488  -0.9847   0.0000   0.0000   0.0000   0.3604
   2.000   0.5389   0.00561   0.00118  -0.0593  0.4518  0.6512  -1.0093   0.0000   0.0000   0.0000   0.3556
   2.200   0.5616   0.00571   0.00122  -0.0594  0.4392  0.6547  -1.0338   0.0000   0.0000   0.0000   0.3512
   2.400   0.5844   0.00575   0.00127  -0.0596  0.4299  0.6676  -1.0586   0.0000   0.0000   0.0000   0.3472
   2.600   0.6074   0.00574   0.00131  -0.0598  0.4284  0.6800  -1.0837   0.0000   0.0000   0.0000   0.3434
   2.800   0.6304   0.00575   0.00135  -0.0600  0.4261  0.6893  -1.1089   0.0000   0.0000   0.0000   0.3399
   3.000   0.6534   0.00579   0.00140  -0.0601  0.4223  0.6959  -1.1356   0.0000   0.0000   0.0000   0.3367
   3.200   0.6762   0.00585   0.00145  -0.0603  0.4164  0.7003  -1.1643   0.0000   0.0000   0.0000   0.3336
   3.400   0.6987   0.00596   0.00150  -0.0604  0.4088  0.7034  -1.1930   0.0000   0.0000   0.0000   0.3308
   3.600   0.7208   0.00604   0.00157  -0.0605  0.3991  0.7192  -1.2214   0.0000   0.0000   0.0000   0.3280
   3.800   0.7430   0.00611   0.00168  -0.0606  0.3865  0.7325  -1.2499   0.0000   0.0000   0.0000   0.3254
   4.000   0.7657   0.00614   0.00174  -0.0607  0.3821  0.7421  -1.2791   0.0000   0.0000   0.0000   0.3230
   4.200   0.7885   0.00618   0.00180  -0.0609  0.3796  0.7491  -1.3087   0.0000   0.0000   0.0000   0.3207
   4.400   0.8112   0.00623   0.00186  -0.0611  0.3759  0.7582  -1.3381   0.0000   0.0000   0.0000   0.3185
   4.600   0.8331   0.00628   0.00194  -0.0611  0.3699  0.7772  -1.3708   0.0000   0.0000   0.0000   0.3164
   4.800   0.8546   0.00640   0.00204  -0.0611  0.3606  0.7906  -1.4037   0.0000   0.0000   0.0000   0.3143
   5.000   0.8762   0.00655   0.00214  -0.0611  0.3472  0.7991  -1.4369   0.0000   0.0000   0.0000   0.3123
   5.200   0.8978   0.00661   0.00223  -0.0611  0.3373  0.8185  -1.4703   0.0000   0.0000   0.0000   0.3104
   5.400   0.9200   0.00663   0.00231  -0.0611  0.3359  0.8340  -1.5048   0.0000   0.0000   0.0000   0.3086
   5.600   0.9422   0.00668   0.00239  -0.0612  0.3335  0.8479  -1.5444   0.0000   0.0000   0.0000   0.3069
   5.800   0.9632   0.00671   0.00249  -0.0610  0.3294  0.8718  -1.5831   0.0000   0.0000   0.0000   0.3051
   6.000   0.9834   0.00679   0.00259  -0.0607  0.3230  0.8962  -1.6213   0.0000   0.0000   0.0000   0.3032
   6.200   1.0019   0.00693   0.00273  -0.0600  0.3118  0.9252  -1.6577   0.0000   0.0000   0.0000   0.3012
   6.400   1.0205   0.00707   0.00286  -0.0593  0.2933  0.9609  -1.6946   0.0000   0.0000   0.0000   0.2992
   6.600   1.0500   0.00719   0.00297  -0.0611  0.2856  0.9902  -1.7562   0.0000   0.0000   0.0000   0.2990
   6.800   1.0722   0.00739   0.00311  -0.0614  0.2761  1.0000  -1.8239   0.0000   0.0000   0.0000   0.2978
   7.000   1.0919   0.00768   0.00329  -0.0611  0.2576  1.0000  -1.8953   0.0000   0.0000   0.0000   0.2963
   7.200   1.1095   0.00812   0.00363  -0.0607  0.2302  1.0000  -1.9716   0.0000   0.0000   0.0000   0.2947
   7.400   1.1291   0.00840   0.00383  -0.0604  0.2117  1.0000  -2.0548   0.0000   0.0000   0.0000   0.2933
   7.600   1.1498   0.00857   0.00399  -0.0604  0.2060  1.0000  -2.2182   0.0000   0.0000   0.0000   0.2920
   7.800   1.1680   0.00894   0.00425  -0.0599  0.1907  1.0000  -2.3789   0.0000   0.0000   0.0000   0.2906
   8.000   1.1872   0.00923   0.00446  -0.0596  0.1747  1.0000  -2.5478   0.0000   0.0000   0.0000   0.2892
   8.200   1.2063   0.00950   0.00469  -0.0594  0.1652  1.0000  -2.7209   0.0000   0.0000   0.0000   0.2879
   8.400   1.2225   0.00999   0.00503  -0.0587  0.1432  1.0000  -2.8847   0.0000   0.0000   0.0000   0.2864
   8.600   1.2409   0.01029   0.00529  -0.0583  0.1335  1.0000  -3.0622   0.0000   0.0000   0.0000   0.2851
   8.800   1.2557   0.01084   0.00569  -0.0574  0.1116  1.0000  -3.2265   0.0000   0.0000   0.0000   0.2836
   9.000   1.2720   0.01125   0.00603  -0.0567  0.1002  1.0000  -3.4015   0.0000   0.0000   0.0000   0.2822
   9.200   1.2861   0.01179   0.00645  -0.0557  0.0819  1.0000  -3.5688   0.0000   0.0000   0.0000   0.2806
   9.400   1.2993   0.01235   0.00691  -0.0545  0.0690  1.0000  -3.7349   0.0000   0.0000   0.0000   0.2790
   9.600   1.3145   0.01276   0.00726  -0.0537  0.0578  1.0000  -3.9136   0.0000   0.0000   0.0000   0.2776
   9.800   1.3268   0.01330   0.00773  -0.0524  0.0485  1.0000  -4.0811   0.0000   0.0000   0.0000   0.2759
  10.000   1.3399   0.01376   0.00814  -0.0512  0.0387  1.0000  -4.2554   0.0000   0.0000   0.0000   0.2744
  10.200   1.3507   0.01420   0.00854  -0.0496  0.0339  1.0000  -4.4323   0.0000   0.0000   0.0000   0.2726
  10.400   1.3584   0.01471   0.00902  -0.0475  0.0283  1.0000  -4.5937   0.0000   0.0000   0.0000   0.2705
  10.600   1.3688   0.01513   0.00946  -0.0459  0.0232  1.0000  -4.7668   0.0000   0.0000   0.0000   0.2688
  10.800   1.3774   0.01565   0.00997  -0.0442  0.0198  1.0000  -4.9359   0.0000   0.0000   0.0000   0.2670
  11.000   1.3797   0.01652   0.01078  -0.0418  0.0113  1.0000  -5.0702   0.0000   0.0000   0.0000   0.2648
  11.200   1.3884   0.01713   0.01137  -0.0403  0.0096  1.0000  -5.2426   0.0000   0.0000   0.0000   0.2632


