xflr5 v6.61

 Calculated polar for: S2027

 1 1 Reynolds number fixed          Mach number fixed         

 xtrf =   1.000 (top)        1.000 (bottom)
 Mach =   0.000     Re =     2.500 e 6     Ncrit =   9.000

  alpha     CL        CD       CDp       Cm    Top Xtr Bot Xtr   Cpmin    Chinge    XCp    
 ------- -------- --------- --------- -------- ------- ------- -------- --------- ---------
 -10.000  -0.4044   0.06381   0.06223  -0.0567  0.8307  0.0106  -3.0799   0.0000   0.0000   0.0000   0.0935
  -9.800  -0.4254   0.05711   0.05539  -0.0624  0.8173  0.0106  -3.2512   0.0000   0.0000   0.0000   0.0878
  -9.600  -0.4428   0.05233   0.05051  -0.0663  0.8071  0.0105  -3.3551   0.0000   0.0000   0.0000   0.0857
  -9.400  -0.4591   0.04869   0.04679  -0.0688  0.8016  0.0105  -3.4275   0.0000   0.0000   0.0000   0.0867
  -9.200  -0.4747   0.04590   0.04389  -0.0696  0.7923  0.0105  -3.4793   0.0000   0.0000   0.0000   0.0906
  -9.000  -0.4903   0.04386   0.04173  -0.0684  0.7798  0.0106  -3.5149   0.0000   0.0000   0.0000   0.0984
  -8.800  -0.4989   0.04183   0.03957  -0.0671  0.7667  0.0106  -3.5308   0.0000   0.0000   0.0000   0.1040
  -8.600  -0.5009   0.03957   0.03720  -0.0664  0.7636  0.0106  -3.5293   0.0000   0.0000   0.0000   0.1063
  -8.400  -0.4994   0.03737   0.03488  -0.0657  0.7602  0.0106  -3.5145   0.0000   0.0000   0.0000   0.1075
  -8.200  -0.4949   0.03525   0.03263  -0.0650  0.7551  0.0106  -3.4880   0.0000   0.0000   0.0000   0.1080
  -8.000  -0.4881   0.03323   0.03047  -0.0643  0.7480  0.0106  -3.4512   0.0000   0.0000   0.0000   0.1077
  -7.800  -0.4793   0.03132   0.02840  -0.0636  0.7390  0.0106  -3.4054   0.0000   0.0000   0.0000   0.1068
  -7.600  -0.4689   0.02950   0.02642  -0.0630  0.7270  0.0106  -3.3521   0.0000   0.0000   0.0000   0.1054
  -7.400  -0.4568   0.02776   0.02452  -0.0624  0.7197  0.0106  -3.2913   0.0000   0.0000   0.0000   0.1032
  -7.200  -0.4432   0.02608   0.02272  -0.0619  0.7172  0.0106  -3.2239   0.0000   0.0000   0.0000   0.1002
  -7.000  -0.4284   0.02451   0.02101  -0.0614  0.7134  0.0107  -3.1508   0.0000   0.0000   0.0000   0.0966
  -6.800  -0.4127   0.02303   0.01940  -0.0609  0.7082  0.0107  -3.0728   0.0000   0.0000   0.0000   0.0923
  -6.600  -0.3962   0.02166   0.01788  -0.0605  0.7014  0.0107  -2.9905   0.0000   0.0000   0.0000   0.0873
  -6.400  -0.3789   0.02033   0.01637  -0.0600  0.6934  0.0107  -2.9080   0.0000   0.0000   0.0000   0.0815
  -6.200  -0.3608   0.01913   0.01503  -0.0596  0.6833  0.0107  -2.8184   0.0000   0.0000   0.0000   0.0746
  -6.000  -0.3420   0.01800   0.01377  -0.0593  0.6737  0.0107  -2.7257   0.0000   0.0000   0.0000   0.0664
  -5.800  -0.3224   0.01692   0.01259  -0.0590  0.6719  0.0107  -2.6298   0.0000   0.0000   0.0000   0.0567
  -5.600  -0.3024   0.01591   0.01148  -0.0587  0.6692  0.0108  -2.5319   0.0000   0.0000   0.0000   0.0452
  -5.400  -0.2821   0.01497   0.01045  -0.0585  0.6644  0.0108  -2.4323   0.0000   0.0000   0.0000   0.0319
  -3.200  -0.0532   0.00726   0.00157  -0.0552  0.5865  0.0245  -1.6083   0.0000   0.0000   0.0000  -0.8151
  -3.000  -0.0307   0.00709   0.00143  -0.0553  0.5765  0.0436  -1.4646   0.0000   0.0000   0.0000  -1.5927
  -2.800  -0.0088   0.00673   0.00128  -0.0554  0.5751  0.0943  -1.3292   0.0000   0.0000   0.0000  -6.1569
  -2.600   0.0131   0.00639   0.00116  -0.0555  0.5733  0.1538  -1.1959   0.0000   0.0000   0.0000   4.5779
  -2.400   0.0352   0.00610   0.00107  -0.0557  0.5705  0.2060  -1.0647   0.0000   0.0000   0.0000   1.8569
  -2.200   0.0573   0.00583   0.00099  -0.0558  0.5659  0.2695  -0.9374   0.0000   0.0000   0.0000   1.2387
  -2.000   0.0794   0.00562   0.00093  -0.0559  0.5586  0.3203  -0.8132   0.0000   0.0000   0.0000   0.9630
  -1.800   0.1010   0.00538   0.00087  -0.0560  0.5490  0.3889  -0.6943   0.0000   0.0000   0.0000   0.8100
  -1.600   0.1239   0.00535   0.00085  -0.0561  0.5367  0.4139  -0.6269   0.0000   0.0000   0.0000   0.7069
  -1.400   0.1466   0.00526   0.00084  -0.0563  0.5272  0.4425  -0.6448   0.0000   0.0000   0.0000   0.6362
  -1.200   0.1696   0.00514   0.00083  -0.0565  0.5262  0.4773  -0.6630   0.0000   0.0000   0.0000   0.5841
  -1.000   0.1930   0.00510   0.00082  -0.0567  0.5246  0.4912  -0.6814   0.0000   0.0000   0.0000   0.5440
  -0.800   0.2165   0.00510   0.00082  -0.0569  0.5222  0.4971  -0.7000   0.0000   0.0000   0.0000   0.5125
  -0.600   0.2396   0.00505   0.00082  -0.0571  0.5185  0.5233  -0.7195   0.0000   0.0000   0.0000   0.4874
  -0.400   0.2626   0.00503   0.00083  -0.0573  0.5130  0.5391  -0.7404   0.0000   0.0000   0.0000   0.4667
  -0.200   0.2857   0.00508   0.00084  -0.0574  0.5053  0.5445  -0.7613   0.0000   0.0000   0.0000   0.4493
   0.000   0.3087   0.00514   0.00085  -0.0576  0.4948  0.5500  -0.7823   0.0000   0.0000   0.0000   0.4345
   0.200   0.3317   0.00516   0.00087  -0.0578  0.4824  0.5679  -0.8033   0.0000   0.0000   0.0000   0.4218
   0.400   0.3549   0.00513   0.00088  -0.0580  0.4778  0.5822  -0.8245   0.0000   0.0000   0.0000   0.4107
   0.600   0.3783   0.00512   0.00089  -0.0582  0.4765  0.5918  -0.8460   0.0000   0.0000   0.0000   0.4009
   0.800   0.4017   0.00514   0.00091  -0.0584  0.4745  0.5962  -0.8676   0.0000   0.0000   0.0000   0.3922
   1.000   0.4251   0.00517   0.00093  -0.0586  0.4714  0.5986  -0.8893   0.0000   0.0000   0.0000   0.3845
   1.200   0.4484   0.00521   0.00095  -0.0589  0.4663  0.6025  -0.9121   0.0000   0.0000   0.0000   0.3776
   1.400   0.4713   0.00525   0.00098  -0.0590  0.4594  0.6158  -0.9364   0.0000   0.0000   0.0000   0.3714
   1.600   0.4940   0.00530   0.00101  -0.0592  0.4508  0.6268  -0.9607   0.0000   0.0000   0.0000   0.3657
   1.800   0.5167   0.00535   0.00105  -0.0593  0.4388  0.6366  -0.9851   0.0000   0.0000   0.0000   0.3606
   2.000   0.5397   0.00539   0.00109  -0.0595  0.4299  0.6441  -1.0098   0.0000   0.0000   0.0000   0.3558
   2.200   0.5631   0.00541   0.00112  -0.0597  0.4283  0.6484  -1.0350   0.0000   0.0000   0.0000   0.3515
   2.400   0.5863   0.00545   0.00115  -0.0599  0.4258  0.6507  -1.0602   0.0000   0.0000   0.0000   0.3475
   2.600   0.6095   0.00550   0.00118  -0.0602  0.4218  0.6525  -1.0854   0.0000   0.0000   0.0000   0.3437
   2.800   0.6323   0.00554   0.00123  -0.0603  0.4156  0.6658  -1.1104   0.0000   0.0000   0.0000   0.3402
   3.000   0.6547   0.00561   0.00129  -0.0604  0.4078  0.6788  -1.1367   0.0000   0.0000   0.0000   0.3370
   3.200   0.6771   0.00569   0.00135  -0.0606  0.3983  0.6878  -1.1651   0.0000   0.0000   0.0000   0.3339
   3.400   0.6997   0.00576   0.00141  -0.0607  0.3871  0.6945  -1.1938   0.0000   0.0000   0.0000   0.3310
   3.600   0.7227   0.00580   0.00146  -0.0609  0.3823  0.6997  -1.2230   0.0000   0.0000   0.0000   0.3283
   3.800   0.7458   0.00584   0.00153  -0.0611  0.3800  0.7032  -1.2524   0.0000   0.0000   0.0000   0.3258
   4.000   0.7685   0.00588   0.00159  -0.0613  0.3759  0.7176  -1.2817   0.0000   0.0000   0.0000   0.3234
   4.200   0.7908   0.00594   0.00166  -0.0614  0.3699  0.7309  -1.3108   0.0000   0.0000   0.0000   0.3211
   4.400   0.8128   0.00604   0.00174  -0.0614  0.3615  0.7406  -1.3396   0.0000   0.0000   0.0000   0.3189
   4.600   0.8347   0.00617   0.00183  -0.0615  0.3492  0.7487  -1.3721   0.0000   0.0000   0.0000   0.3167
   4.800   0.8570   0.00626   0.00191  -0.0616  0.3374  0.7574  -1.4058   0.0000   0.0000   0.0000   0.3147
   5.000   0.8794   0.00627   0.00198  -0.0617  0.3359  0.7769  -1.4399   0.0000   0.0000   0.0000   0.3128
   5.200   0.9018   0.00630   0.00205  -0.0618  0.3336  0.7902  -1.4741   0.0000   0.0000   0.0000   0.3110
   5.400   0.9242   0.00637   0.00213  -0.0620  0.3295  0.7984  -1.5092   0.0000   0.0000   0.0000   0.3092
   5.600   0.9457   0.00646   0.00223  -0.0619  0.3230  0.8170  -1.5482   0.0000   0.0000   0.0000   0.3075
   5.800   0.9668   0.00658   0.00234  -0.0619  0.3147  0.8333  -1.5869   0.0000   0.0000   0.0000   0.3057
   6.000   0.9878   0.00673   0.00246  -0.0618  0.2998  0.8483  -1.6256   0.0000   0.0000   0.0000   0.3040
   6.200   1.0087   0.00679   0.00257  -0.0616  0.2915  0.8737  -1.6647   0.0000   0.0000   0.0000   0.3023
   6.400   1.0279   0.00693   0.00271  -0.0611  0.2798  0.8999  -1.7024   0.0000   0.0000   0.0000   0.3005
   6.600   1.0459   0.00710   0.00287  -0.0604  0.2674  0.9303  -1.7509   0.0000   0.0000   0.0000   0.2985
   6.800   1.0655   0.00720   0.00299  -0.0599  0.2560  0.9668  -1.8130   0.0000   0.0000   0.0000   0.2968
   7.000   1.0945   0.00739   0.00314  -0.0617  0.2430  1.0000  -1.9016   0.0000   0.0000   0.0000   0.2967
   7.200   1.1116   0.00788   0.00349  -0.0611  0.2094  1.0000  -1.9768   0.0000   0.0000   0.0000   0.2950
   7.400   1.1308   0.00819   0.00371  -0.0608  0.1960  1.0000  -2.0607   0.0000   0.0000   0.0000   0.2936
   7.600   1.1497   0.00852   0.00394  -0.0605  0.1759  1.0000  -2.2201   0.0000   0.0000   0.0000   0.2922
   7.800   1.1701   0.00873   0.00411  -0.0604  0.1695  1.0000  -2.3901   0.0000   0.0000   0.0000   0.2909
   8.000   1.1870   0.00918   0.00443  -0.0598  0.1501  1.0000  -2.5499   0.0000   0.0000   0.0000   0.2894
   8.200   1.2064   0.00944   0.00464  -0.0595  0.1376  1.0000  -2.7240   0.0000   0.0000   0.0000   0.2881
   8.400   1.2222   0.00995   0.00501  -0.0588  0.1190  1.0000  -2.8863   0.0000   0.0000   0.0000   0.2865
   8.600   1.2405   0.01026   0.00527  -0.0584  0.1062  1.0000  -3.0635   0.0000   0.0000   0.0000   0.2852
   8.800   1.2549   0.01084   0.00570  -0.0574  0.0847  1.0000  -3.2258   0.0000   0.0000   0.0000   0.2836
   9.000   1.2709   0.01127   0.00605  -0.0567  0.0738  1.0000  -3.3991   0.0000   0.0000   0.0000   0.2822
   9.200   1.2863   0.01172   0.00641  -0.0558  0.0595  1.0000  -3.5728   0.0000   0.0000   0.0000   0.2807
   9.400   1.3015   0.01216   0.00680  -0.0550  0.0514  1.0000  -3.7489   0.0000   0.0000   0.0000   0.2793
   9.600   1.3159   0.01262   0.00718  -0.0540  0.0398  1.0000  -3.9238   0.0000   0.0000   0.0000   0.2777
   9.800   1.3312   0.01300   0.00753  -0.0531  0.0354  1.0000  -4.1072   0.0000   0.0000   0.0000   0.2763
  10.000   1.3438   0.01349   0.00797  -0.0519  0.0288  1.0000  -4.2828   0.0000   0.0000   0.0000   0.2747
  10.200   1.3583   0.01382   0.00828  -0.0509  0.0236  1.0000  -4.4802   0.0000   0.0000   0.0000   0.2733
  10.400   1.3709   0.01414   0.00860  -0.0495  0.0220  1.0000  -4.6709   0.0000   0.0000   0.0000   0.2716
  10.600   1.3729   0.01486   0.00929  -0.0465  0.0138  1.0000  -4.7975   0.0000   0.0000   0.0000   0.2691
  10.800   1.3820   0.01535   0.00975  -0.0448  0.0103  1.0000  -4.9704   0.0000   0.0000   0.0000   0.2673
  11.000   1.3911   0.01587   0.01026  -0.0432  0.0088  1.0000  -5.1461   0.0000   0.0000   0.0000   0.2656
  11.200   1.3985   0.01649   0.01086  -0.0415  0.0064  1.0000  -5.3072   0.0000   0.0000   0.0000   0.2639
  11.400   1.4038   0.01730   0.01179  -0.0394  0.0035  1.0000  -5.3556   0.0000   0.0000   0.0000   0.2619
  11.600   1.4131   0.01790   0.01244  -0.0381  0.0035  1.0000  -5.5272   0.0000   0.0000   0.0000   0.2605
  11.800   1.4232   0.01851   0.01309  -0.0369  0.0035  1.0000  -5.7064   0.0000   0.0000   0.0000   0.2591
  12.000   1.4317   0.01922   0.01386  -0.0357  0.0035  1.0000  -5.8774   0.0000   0.0000   0.0000   0.2577
  12.200   1.4389   0.02002   0.01472  -0.0344  0.0035  1.0000  -6.0361   0.0000   0.0000   0.0000   0.2563
  12.400   1.4461   0.02088   0.01564  -0.0331  0.0035  1.0000  -6.1929   0.0000   0.0000   0.0000   0.2550
  12.600   1.4501   0.02197   0.01681  -0.0318  0.0035  1.0000  -6.3309   0.0000   0.0000   0.0000   0.2536
  12.800   1.4553   0.02306   0.01798  -0.0306  0.0035  1.0000  -6.4755   0.0000   0.0000   0.0000   0.2523
  13.000   1.4586   0.02432   0.01932  -0.0294  0.0035  1.0000  -6.6096   0.0000   0.0000   0.0000   0.2511
  13.200   1.4603   0.02577   0.02085  -0.0283  0.0035  1.0000  -6.7333   0.0000   0.0000   0.0000   0.2499
  13.400   1.4630   0.02718   0.02234  -0.0272  0.0035  1.0000  -6.8640   0.0000   0.0000   0.0000   0.2487
  13.600   1.4613   0.02900   0.02425  -0.0263  0.0035  1.0000  -6.9675   0.0000   0.0000   0.0000   0.2476
  13.800   1.4612   0.03064   0.02598  -0.0253  0.0035  1.0000  -7.0824   0.0000   0.0000   0.0000   0.2466
  14.000   1.4594   0.03258   0.02800  -0.0245  0.0035  1.0000  -7.1856   0.0000   0.0000   0.0000   0.2456
  14.200   1.4564   0.03475   0.03025  -0.0239  0.0034  1.0000  -7.2817   0.0000   0.0000   0.0000   0.2448
  14.400   1.4558   0.03675   0.03233  -0.0234  0.0034  1.0000  -7.3948   0.0000   0.0000   0.0000   0.2440
  14.600   1.4502   0.03945   0.03511  -0.0232  0.0034  1.0000  -7.4724   0.0000   0.0000   0.0000   0.2435
  14.800   1.4485   0.04175   0.03749  -0.0230  0.0034  1.0000  -7.5780   0.0000   0.0000   0.0000   0.2429
  15.000   1.4472   0.04405   0.03986  -0.0228  0.0034  1.0000  -7.6876   0.0000   0.0000   0.0000   0.2424


