xflr5 v6.61

 Calculated polar for: S2027

 1 1 Reynolds number fixed          Mach number fixed         

 xtrf =   1.000 (top)        1.000 (bottom)
 Mach =   0.000     Re =     0.500 e 6     Ncrit =   9.000

  alpha     CL        CD       CDp       Cm    Top Xtr Bot Xtr   Cpmin    Chinge    XCp    
 ------- -------- --------- --------- -------- ------- ------- -------- --------- ---------
  -9.800  -0.3884   0.08104   0.07899  -0.0451  1.0000  0.0329  -2.0791   0.0000   0.0000   0.0000   0.1189
  -9.600  -0.3937   0.07629   0.07427  -0.0486  1.0000  0.0335  -2.1516   0.0000   0.0000   0.0000   0.1121
  -9.400  -0.4073   0.06434   0.06228  -0.0623  0.9718  0.0335  -2.4180   0.0000   0.0000   0.0000   0.0828
  -9.200  -0.4274   0.05597   0.05370  -0.0730  0.9426  0.0332  -2.6151   0.0000   0.0000   0.0000   0.0657
  -9.000  -0.4483   0.05261   0.05016  -0.0742  0.9176  0.0330  -2.6991   0.0000   0.0000   0.0000   0.0721
  -8.800  -0.4625   0.05036   0.04779  -0.0732  0.9018  0.0333  -2.7342   0.0000   0.0000   0.0000   0.0799
  -8.600  -0.4680   0.04823   0.04549  -0.0724  0.8890  0.0340  -2.7357   0.0000   0.0000   0.0000   0.0838
  -8.400  -0.4682   0.04608   0.04322  -0.0720  0.8800  0.0351  -2.7216   0.0000   0.0000   0.0000   0.0851
  -8.200  -0.4652   0.04403   0.04102  -0.0715  0.8711  0.0363  -2.6988   0.0000   0.0000   0.0000   0.0854
  -8.000  -0.4601   0.04217   0.03900  -0.0708  0.8622  0.0377  -2.6684   0.0000   0.0000   0.0000   0.0854
  -7.800  -0.4517   0.04065   0.03730  -0.0700  0.8530  0.0392  -2.6246   0.0000   0.0000   0.0000   0.0845
  -7.600  -0.4381   0.03969   0.03621  -0.0694  0.8458  0.0409  -2.5551   0.0000   0.0000   0.0000   0.0811
  -7.400  -0.4138   0.04113   0.03760  -0.0687  0.8392  0.0430  -2.4018   0.0000   0.0000   0.0000   0.0733
  -7.200  -0.3982   0.04096   0.03730  -0.0680  0.8312  0.0435  -2.3144   0.0000   0.0000   0.0000   0.0687
  -7.000  -0.3872   0.03934   0.03543  -0.0673  0.8231  0.0436  -2.2736   0.0000   0.0000   0.0000   0.0657
  -6.800  -0.3759   0.03750   0.03338  -0.0666  0.8150  0.0437  -2.2356   0.0000   0.0000   0.0000   0.0623
  -6.600  -0.3907   0.02759   0.02293  -0.0662  0.8075  0.0490  -2.4161   0.0000   0.0000   0.0000   0.0703
  -6.400  -0.3737   0.02624   0.02152  -0.0660  0.8032  0.0509  -2.3254   0.0000   0.0000   0.0000   0.0633
  -6.200  -0.3553   0.02509   0.02032  -0.0657  0.7976  0.0529  -2.2311   0.0000   0.0000   0.0000   0.0547
  -6.000  -0.3367   0.02402   0.01917  -0.0654  0.7913  0.0552  -2.1420   0.0000   0.0000   0.0000   0.0454
  -5.800  -0.3177   0.02301   0.01806  -0.0650  0.7846  0.0579  -2.0586   0.0000   0.0000   0.0000   0.0350
  -5.600  -0.2983   0.02203   0.01693  -0.0644  0.7774  0.0604  -1.9824   0.0000   0.0000   0.0000   0.0233
  -5.400  -0.2793   0.02043   0.01510  -0.0638  0.7685  0.0601  -1.9388   0.0000   0.0000   0.0000   0.0107
  -5.000  -0.2359   0.01410   0.00780  -0.0597  0.7591  0.0222  -2.2946   0.0000   0.0000   0.0000  -0.0151
  -4.800  -0.2167   0.01322   0.00680  -0.0591  0.7530  0.0215  -2.2347   0.0000   0.0000   0.0000  -0.0349
  -4.600  -0.1970   0.01253   0.00597  -0.0585  0.7462  0.0210  -2.1644   0.0000   0.0000   0.0000  -0.0597
  -4.400  -0.1768   0.01198   0.00529  -0.0580  0.7394  0.0206  -2.0858   0.0000   0.0000   0.0000  -0.0915
  -4.200  -0.1561   0.01155   0.00471  -0.0576  0.7319  0.0204  -2.0014   0.0000   0.0000   0.0000  -0.1331
  -4.000  -0.1348   0.01125   0.00425  -0.0573  0.7226  0.0205  -1.9133   0.0000   0.0000   0.0000  -0.1902
  -3.800  -0.1127   0.01096   0.00386  -0.0571  0.7180  0.0210  -1.8242   0.0000   0.0000   0.0000  -0.2737
  -3.600  -0.0904   0.01069   0.00349  -0.0569  0.7137  0.0232  -1.7504   0.0000   0.0000   0.0000  -0.3998
  -3.400  -0.0760   0.00896   0.00287  -0.0565  0.7083  0.2564  -1.7353   0.0000   0.0000   0.0000  -0.5163
  -3.200  -0.0556   0.00853   0.00273  -0.0565  0.7013  0.3303  -1.6016   0.0000   0.0000   0.0000  -0.7938
  -3.000  -0.0346   0.00825   0.00262  -0.0563  0.6936  0.3894  -1.4671   0.0000   0.0000   0.0000  -1.4186
  -2.800  -0.0127   0.00816   0.00246  -0.0563  0.6851  0.4121  -1.3254   0.0000   0.0000   0.0000  -4.2796
  -2.600   0.0087   0.00804   0.00243  -0.0562  0.6751  0.4576  -1.1942   0.0000   0.0000   0.0000   6.8211
  -2.400   0.0299   0.00784   0.00247  -0.0560  0.6710  0.5181  -1.0659   0.0000   0.0000   0.0000   2.1537
  -2.200   0.0519   0.00775   0.00252  -0.0559  0.6670  0.5607  -0.9387   0.0000   0.0000   0.0000   1.3437
  -2.000   0.0743   0.00770   0.00252  -0.0558  0.6619  0.5793  -0.8144   0.0000   0.0000   0.0000   1.0114
  -1.800   0.0971   0.00770   0.00250  -0.0558  0.6557  0.5913  -0.6929   0.0000   0.0000   0.0000   0.8314
  -1.600   0.1200   0.00774   0.00247  -0.0559  0.6486  0.5991  -0.6231   0.0000   0.0000   0.0000   0.7197
  -1.400   0.1421   0.00772   0.00242  -0.0558  0.6403  0.6137  -0.6407   0.0000   0.0000   0.0000   0.6451
  -1.200   0.1640   0.00775   0.00243  -0.0556  0.6296  0.6270  -0.6581   0.0000   0.0000   0.0000   0.5907
  -1.000   0.1868   0.00778   0.00245  -0.0557  0.6235  0.6380  -0.6760   0.0000   0.0000   0.0000   0.5487
  -0.800   0.2098   0.00778   0.00245  -0.0558  0.6201  0.6465  -0.6943   0.0000   0.0000   0.0000   0.5157
  -0.600   0.2330   0.00781   0.00245  -0.0559  0.6155  0.6516  -0.7136   0.0000   0.0000   0.0000   0.4893
  -0.400   0.2556   0.00776   0.00242  -0.0560  0.6100  0.6637  -0.7341   0.0000   0.0000   0.0000   0.4678
  -0.200   0.2779   0.00775   0.00243  -0.0559  0.6037  0.6753  -0.7545   0.0000   0.0000   0.0000   0.4496
   0.000   0.3001   0.00777   0.00243  -0.0559  0.5964  0.6845  -0.7749   0.0000   0.0000   0.0000   0.4341
   0.200   0.3223   0.00784   0.00244  -0.0558  0.5872  0.6929  -0.7954   0.0000   0.0000   0.0000   0.4208
   0.400   0.3448   0.00797   0.00245  -0.0558  0.5762  0.6997  -0.8159   0.0000   0.0000   0.0000   0.4094
   0.600   0.3678   0.00797   0.00245  -0.0560  0.5734  0.7055  -0.8370   0.0000   0.0000   0.0000   0.3994
   0.800   0.3904   0.00791   0.00246  -0.0561  0.5697  0.7169  -0.8580   0.0000   0.0000   0.0000   0.3905
   1.000   0.4128   0.00790   0.00250  -0.0560  0.5649  0.7272  -0.8788   0.0000   0.0000   0.0000   0.3824
   1.200   0.4351   0.00792   0.00253  -0.0560  0.5592  0.7370  -0.9005   0.0000   0.0000   0.0000   0.3752
   1.400   0.4576   0.00796   0.00255  -0.0560  0.5529  0.7454  -0.9244   0.0000   0.0000   0.0000   0.3687
   1.600   0.4799   0.00804   0.00256  -0.0561  0.5459  0.7514  -0.9484   0.0000   0.0000   0.0000   0.3629
   1.800   0.5016   0.00810   0.00260  -0.0560  0.5367  0.7622  -0.9719   0.0000   0.0000   0.0000   0.3575
   2.000   0.5231   0.00819   0.00269  -0.0559  0.5268  0.7744  -0.9952   0.0000   0.0000   0.0000   0.3524
   2.200   0.5453   0.00817   0.00273  -0.0558  0.5240  0.7859  -1.0195   0.0000   0.0000   0.0000   0.3478
   2.400   0.5678   0.00818   0.00277  -0.0559  0.5198  0.7956  -1.0440   0.0000   0.0000   0.0000   0.3436
   2.600   0.5900   0.00820   0.00281  -0.0559  0.5147  0.8063  -1.0683   0.0000   0.0000   0.0000   0.3397
   2.800   0.6112   0.00821   0.00287  -0.0556  0.5088  0.8204  -1.0921   0.0000   0.0000   0.0000   0.3358
   3.000   0.6324   0.00826   0.00292  -0.0554  0.5022  0.8347  -1.1166   0.0000   0.0000   0.0000   0.3323
   3.200   0.6532   0.00833   0.00299  -0.0551  0.4946  0.8491  -1.1436   0.0000   0.0000   0.0000   0.3288
   3.400   0.6727   0.00843   0.00309  -0.0545  0.4852  0.8665  -1.1697   0.0000   0.0000   0.0000   0.3253
   3.800   0.7132   0.00849   0.00325  -0.0536  0.4746  0.9035  -1.2234   0.0000   0.0000   0.0000   0.3190
   4.000   0.7336   0.00849   0.00337  -0.0531  0.4699  0.9254  -1.2507   0.0000   0.0000   0.0000   0.3161
   4.200   0.7568   0.00851   0.00342  -0.0533  0.4636  0.9506  -1.2803   0.0000   0.0000   0.0000   0.3139
   4.400   0.7868   0.00859   0.00348  -0.0550  0.4562  0.9734  -1.3151   0.0000   0.0000   0.0000   0.3131
   4.600   0.8193   0.00872   0.00355  -0.0574  0.4474  0.9950  -1.3554   0.0000   0.0000   0.0000   0.3131
   4.800   0.8414   0.00891   0.00368  -0.0577  0.4371  1.0000  -1.3884   0.0000   0.0000   0.0000   0.3114
   5.000   0.8624   0.00908   0.00381  -0.0576  0.4294  1.0000  -1.4205   0.0000   0.0000   0.0000   0.3094
   5.200   0.8842   0.00914   0.00390  -0.0577  0.4262  1.0000  -1.4539   0.0000   0.0000   0.0000   0.3077
   5.400   0.9059   0.00922   0.00399  -0.0577  0.4210  1.0000  -1.4874   0.0000   0.0000   0.0000   0.3059
   5.600   0.9271   0.00934   0.00409  -0.0577  0.4141  1.0000  -1.5245   0.0000   0.0000   0.0000   0.3042
   5.800   0.9479   0.00949   0.00421  -0.0576  0.4067  1.0000  -1.5626   0.0000   0.0000   0.0000   0.3025
   6.000   0.9680   0.00969   0.00435  -0.0574  0.3981  1.0000  -1.6002   0.0000   0.0000   0.0000   0.3008
   6.200   0.9875   0.00996   0.00455  -0.0571  0.3863  1.0000  -1.6371   0.0000   0.0000   0.0000   0.2991
   6.400   1.0088   0.01009   0.00470  -0.0571  0.3811  1.0000  -1.6763   0.0000   0.0000   0.0000   0.2976
   6.600   1.0303   0.01018   0.00483  -0.0571  0.3767  1.0000  -1.7247   0.0000   0.0000   0.0000   0.2962
   6.800   1.0513   0.01032   0.00498  -0.0571  0.3710  1.0000  -1.7881   0.0000   0.0000   0.0000   0.2948
   7.000   1.0718   0.01049   0.00514  -0.0569  0.3642  1.0000  -1.8545   0.0000   0.0000   0.0000   0.2934
   7.200   1.0913   0.01072   0.00532  -0.0566  0.3562  1.0000  -1.9231   0.0000   0.0000   0.0000   0.2920
   7.400   1.1096   0.01102   0.00572  -0.0562  0.3443  1.0000  -2.0010   0.0000   0.0000   0.0000   0.2904
   7.600   1.1295   0.01123   0.00594  -0.0560  0.3357  1.0000  -2.1025   0.0000   0.0000   0.0000   0.2891
   7.800   1.1502   0.01135   0.00609  -0.0559  0.3290  1.0000  -2.2699   0.0000   0.0000   0.0000   0.2878
   8.000   1.1692   0.01157   0.00628  -0.0556  0.3182  1.0000  -2.4350   0.0000   0.0000   0.0000   0.2865
   8.200   1.1850   0.01197   0.00656  -0.0548  0.3012  1.0000  -2.5908   0.0000   0.0000   0.0000   0.2849
   8.400   1.2036   0.01222   0.00680  -0.0544  0.2897  1.0000  -2.7615   0.0000   0.0000   0.0000   0.2836
   8.600   1.2218   0.01248   0.00703  -0.0540  0.2781  1.0000  -2.9352   0.0000   0.0000   0.0000   0.2823
   8.800   1.2366   0.01292   0.00736  -0.0531  0.2618  1.0000  -3.0968   0.0000   0.0000   0.0000   0.2808
   9.000   1.2530   0.01327   0.00769  -0.0524  0.2494  1.0000  -3.2685   0.0000   0.0000   0.0000   0.2794
   9.200   1.2707   0.01355   0.00797  -0.0520  0.2411  1.0000  -3.4495   0.0000   0.0000   0.0000   0.2781
   9.400   1.2856   0.01395   0.00832  -0.0511  0.2289  1.0000  -3.6209   0.0000   0.0000   0.0000   0.2767
   9.600   1.2979   0.01447   0.00877  -0.0499  0.2137  1.0000  -3.7828   0.0000   0.0000   0.0000   0.2751
   9.800   1.3136   0.01480   0.00912  -0.0491  0.2055  1.0000  -3.9636   0.0000   0.0000   0.0000   0.2737
  10.000   1.3245   0.01529   0.00954  -0.0476  0.1926  1.0000  -4.1242   0.0000   0.0000   0.0000   0.2720
  10.200   1.3310   0.01594   0.01010  -0.0456  0.1768  1.0000  -4.2642   0.0000   0.0000   0.0000   0.2700
  10.400   1.3417   0.01642   0.01058  -0.0442  0.1668  1.0000  -4.4272   0.0000   0.0000   0.0000   0.2683
  10.600   1.3463   0.01723   0.01128  -0.0421  0.1511  1.0000  -4.5664   0.0000   0.0000   0.0000   0.2664
  10.800   1.3514   0.01807   0.01211  -0.0403  0.1346  1.0000  -4.7005   0.0000   0.0000   0.0000   0.2646
  11.000   1.3531   0.01913   0.01306  -0.0382  0.1186  1.0000  -4.8249   0.0000   0.0000   0.0000   0.2627
  11.200   1.3584   0.02006   0.01394  -0.0367  0.1050  1.0000  -4.9707   0.0000   0.0000   0.0000   0.2611
  11.400   1.3591   0.02131   0.01511  -0.0349  0.0917  1.0000  -5.0914   0.0000   0.0000   0.0000   0.2594
  11.600   1.3623   0.02245   0.01619  -0.0334  0.0796  1.0000  -5.2274   0.0000   0.0000   0.0000   0.2579
  11.800   1.3635   0.02378   0.01748  -0.0320  0.0700  1.0000  -5.3514   0.0000   0.0000   0.0000   0.2565
  12.000   1.3649   0.02518   0.01884  -0.0306  0.0596  1.0000  -5.4760   0.0000   0.0000   0.0000   0.2551
  12.200   1.3678   0.02652   0.02018  -0.0296  0.0530  1.0000  -5.6099   0.0000   0.0000   0.0000   0.2539
  12.400   1.3665   0.02825   0.02186  -0.0284  0.0447  1.0000  -5.7167   0.0000   0.0000   0.0000   0.2527
  12.600   1.3674   0.02987   0.02348  -0.0275  0.0372  1.0000  -5.8343   0.0000   0.0000   0.0000   0.2516
  12.800   1.3628   0.03195   0.02552  -0.0265  0.0298  1.0000  -5.9156   0.0000   0.0000   0.0000   0.2505
  13.000   1.3577   0.03417   0.02771  -0.0256  0.0210  1.0000  -5.9835   0.0000   0.0000   0.0000   0.2495
  13.200   1.3465   0.03714   0.03063  -0.0248  0.0144  1.0000  -5.9977   0.0000   0.0000   0.0000   0.2487
  13.400   1.3417   0.03965   0.03324  -0.0243  0.0109  1.0000  -6.0197   0.0000   0.0000   0.0000   0.2479
  13.600   1.3397   0.04199   0.03568  -0.0240  0.0103  1.0000  -6.0948   0.0000   0.0000   0.0000   0.2473
  13.800   1.3387   0.04424   0.03803  -0.0238  0.0099  1.0000  -6.1756   0.0000   0.0000   0.0000   0.2468
  14.000   1.3361   0.04676   0.04067  -0.0238  0.0096  1.0000  -6.2462   0.0000   0.0000   0.0000   0.2464
  14.200   1.3319   0.04955   0.04356  -0.0240  0.0093  1.0000  -6.3073   0.0000   0.0000   0.0000   0.2461
  14.400   1.3291   0.05218   0.04631  -0.0241  0.0091  1.0000  -6.3754   0.0000   0.0000   0.0000   0.2458
  14.600   1.3236   0.05524   0.04948  -0.0245  0.0090  1.0000  -6.4266   0.0000   0.0000   0.0000   0.2457
  14.800   1.3180   0.05831   0.05266  -0.0250  0.0089  1.0000  -6.4751   0.0000   0.0000   0.0000   0.2457
  15.000   1.3132   0.06122   0.05568  -0.0253  0.0088  1.0000  -6.5284   0.0000   0.0000   0.0000   0.2456


