xflr5 v6.61

 Calculated polar for: S2027

 1 1 Reynolds number fixed          Mach number fixed         

 xtrf =   1.000 (top)        1.000 (bottom)
 Mach =   0.000     Re =     1.000 e 6     Ncrit =   9.000

  alpha     CL        CD       CDp       Cm    Top Xtr Bot Xtr   Cpmin    Chinge    XCp    
 ------- -------- --------- --------- -------- ------- ------- -------- --------- ---------
  -9.400  -0.5694   0.04071   0.03808  -0.0695  0.8625  0.0147  -4.1141   0.0000   0.0000   0.0000   0.1163
  -9.200  -0.5664   0.03936   0.03660  -0.0687  0.8506  0.0150  -4.0333   0.0000   0.0000   0.0000   0.1174
  -9.000  -0.5601   0.03802   0.03518  -0.0681  0.8450  0.0154  -3.9361   0.0000   0.0000   0.0000   0.1172
  -8.800  -0.5523   0.03671   0.03378  -0.0676  0.8388  0.0159  -3.8345   0.0000   0.0000   0.0000   0.1166
  -8.600  -0.5432   0.03545   0.03241  -0.0671  0.8310  0.0165  -3.7298   0.0000   0.0000   0.0000   0.1158
  -8.400  -0.5328   0.03423   0.03106  -0.0665  0.8220  0.0172  -3.6234   0.0000   0.0000   0.0000   0.1147
  -8.200  -0.5212   0.03307   0.02976  -0.0659  0.8109  0.0180  -3.5150   0.0000   0.0000   0.0000   0.1131
  -8.000  -0.5074   0.03194   0.02854  -0.0655  0.8058  0.0190  -3.4013   0.0000   0.0000   0.0000   0.1105
  -7.800  -0.4919   0.03099   0.02751  -0.0652  0.8009  0.0203  -3.2807   0.0000   0.0000   0.0000   0.1072
  -7.600  -0.4736   0.03050   0.02695  -0.0649  0.7950  0.0218  -3.1407   0.0000   0.0000   0.0000   0.1028
  -7.400  -0.4444   0.03253   0.02906  -0.0649  0.7883  0.0238  -2.8758   0.0000   0.0000   0.0000   0.0936
  -7.200  -0.4196   0.03394   0.03044  -0.0646  0.7803  0.0245  -2.6714   0.0000   0.0000   0.0000   0.0856
  -6.600  -0.3769   0.02951   0.02549  -0.0632  0.7611  0.0247  -2.4787   0.0000   0.0000   0.0000   0.0721
  -6.400  -0.3839   0.02061   0.01603  -0.0619  0.7570  0.0292  -2.6957   0.0000   0.0000   0.0000   0.0785
  -6.200  -0.3648   0.01999   0.01537  -0.0619  0.7507  0.0311  -2.5527   0.0000   0.0000   0.0000   0.0703
  -6.000  -0.3451   0.01947   0.01480  -0.0618  0.7429  0.0332  -2.4134   0.0000   0.0000   0.0000   0.0608
  -5.800  -0.3251   0.01900   0.01426  -0.0616  0.7336  0.0360  -2.2836   0.0000   0.0000   0.0000   0.0502
  -5.600  -0.3046   0.01841   0.01357  -0.0613  0.7229  0.0383  -2.1750   0.0000   0.0000   0.0000   0.0381
  -5.400  -0.2830   0.01791   0.01302  -0.0612  0.7187  0.0405  -2.0676   0.0000   0.0000   0.0000   0.0232
  -5.200  -0.2599   0.01805   0.01315  -0.0611  0.7155  0.0426  -1.9412   0.0000   0.0000   0.0000   0.0040
  -4.800  -0.2229   0.01430   0.00916  -0.0605  0.7058  0.0519  -1.8115   0.0000   0.0000   0.0000  -0.0330
  -4.600  -0.2018   0.01363   0.00845  -0.0603  0.6991  0.0548  -1.7163   0.0000   0.0000   0.0000  -0.0608
  -4.400  -0.1805   0.01286   0.00760  -0.0599  0.6910  0.0567  -1.6374   0.0000   0.0000   0.0000  -0.0946
  -4.200  -0.1618   0.00987   0.00377  -0.0562  0.6818  0.0165  -2.0322   0.0000   0.0000   0.0000  -0.1105
  -4.000  -0.1399   0.00961   0.00338  -0.0560  0.6727  0.0158  -1.9290   0.0000   0.0000   0.0000  -0.1649
  -3.800  -0.1174   0.00936   0.00307  -0.0560  0.6698  0.0152  -1.8163   0.0000   0.0000   0.0000  -0.2429
  -3.600  -0.0947   0.00915   0.00280  -0.0559  0.6656  0.0149  -1.7037   0.0000   0.0000   0.0000  -0.3590
  -3.400  -0.0720   0.00899   0.00254  -0.0559  0.6603  0.0148  -1.5961   0.0000   0.0000   0.0000  -0.5486
  -3.200  -0.0541   0.00779   0.00195  -0.0555  0.6542  0.1596  -1.6061   0.0000   0.0000   0.0000  -0.8033
  -3.000  -0.0320   0.00763   0.00178  -0.0555  0.6468  0.1873  -1.4627   0.0000   0.0000   0.0000  -1.5292
  -2.800  -0.0109   0.00731   0.00166  -0.0556  0.6377  0.2524  -1.3299   0.0000   0.0000   0.0000  -4.9434
  -2.600   0.0101   0.00698   0.00157  -0.0556  0.6269  0.3216  -1.1996   0.0000   0.0000   0.0000   5.8729
  -2.400   0.0321   0.00672   0.00150  -0.0557  0.6235  0.3777  -1.0690   0.0000   0.0000   0.0000   2.0171
  -2.200   0.0543   0.00650   0.00146  -0.0558  0.6200  0.4269  -0.9409   0.0000   0.0000   0.0000   1.2927
  -2.000   0.0761   0.00628   0.00145  -0.0558  0.6149  0.4906  -0.8174   0.0000   0.0000   0.0000   0.9923
  -1.800   0.0986   0.00618   0.00144  -0.0558  0.6088  0.5232  -0.6961   0.0000   0.0000   0.0000   0.8224
  -1.600   0.1214   0.00617   0.00143  -0.0559  0.6019  0.5420  -0.6252   0.0000   0.0000   0.0000   0.7146
  -1.400   0.1443   0.00622   0.00141  -0.0560  0.5937  0.5470  -0.6433   0.0000   0.0000   0.0000   0.6405
  -1.200   0.1668   0.00621   0.00141  -0.0561  0.5835  0.5667  -0.6610   0.0000   0.0000   0.0000   0.5874
  -1.000   0.1895   0.00620   0.00142  -0.0562  0.5759  0.5815  -0.6790   0.0000   0.0000   0.0000   0.5467
  -0.800   0.2129   0.00619   0.00142  -0.0563  0.5737  0.5916  -0.6975   0.0000   0.0000   0.0000   0.5143
  -0.600   0.2363   0.00620   0.00142  -0.0565  0.5699  0.5977  -0.7170   0.0000   0.0000   0.0000   0.4884
  -0.400   0.2595   0.00621   0.00141  -0.0567  0.5645  0.6043  -0.7380   0.0000   0.0000   0.0000   0.4671
  -0.200   0.2823   0.00620   0.00142  -0.0568  0.5583  0.6195  -0.7587   0.0000   0.0000   0.0000   0.4495
   0.000   0.3049   0.00621   0.00144  -0.0569  0.5514  0.6298  -0.7794   0.0000   0.0000   0.0000   0.4344
   0.200   0.3275   0.00626   0.00145  -0.0569  0.5430  0.6383  -0.8002   0.0000   0.0000   0.0000   0.4214
   0.400   0.3502   0.00633   0.00146  -0.0570  0.5328  0.6455  -0.8210   0.0000   0.0000   0.0000   0.4102
   0.600   0.3733   0.00638   0.00148  -0.0572  0.5267  0.6498  -0.8421   0.0000   0.0000   0.0000   0.4003
   0.800   0.3968   0.00640   0.00149  -0.0574  0.5249  0.6529  -0.8637   0.0000   0.0000   0.0000   0.3915
   1.000   0.4198   0.00637   0.00152  -0.0576  0.5218  0.6668  -0.8851   0.0000   0.0000   0.0000   0.3838
   1.200   0.4426   0.00636   0.00155  -0.0577  0.5170  0.6779  -0.9073   0.0000   0.0000   0.0000   0.3767
   1.400   0.4653   0.00639   0.00157  -0.0578  0.5104  0.6859  -0.9316   0.0000   0.0000   0.0000   0.3704
   1.600   0.4879   0.00645   0.00160  -0.0579  0.5030  0.6929  -0.9558   0.0000   0.0000   0.0000   0.3646
   1.800   0.5103   0.00654   0.00164  -0.0580  0.4945  0.6991  -0.9800   0.0000   0.0000   0.0000   0.3593
   2.000   0.5329   0.00664   0.00168  -0.0581  0.4843  0.7030  -1.0042   0.0000   0.0000   0.0000   0.3545
   2.200   0.5554   0.00667   0.00174  -0.0582  0.4779  0.7148  -1.0286   0.0000   0.0000   0.0000   0.3501
   2.400   0.5783   0.00665   0.00178  -0.0583  0.4761  0.7262  -1.0534   0.0000   0.0000   0.0000   0.3460
   2.600   0.6011   0.00666   0.00183  -0.0584  0.4734  0.7363  -1.0783   0.0000   0.0000   0.0000   0.3422
   2.800   0.6238   0.00669   0.00187  -0.0585  0.4689  0.7455  -1.1033   0.0000   0.0000   0.0000   0.3387
   3.000   0.6465   0.00675   0.00192  -0.0587  0.4623  0.7518  -1.1294   0.0000   0.0000   0.0000   0.3354
   3.200   0.6683   0.00682   0.00198  -0.0586  0.4537  0.7656  -1.1573   0.0000   0.0000   0.0000   0.3322
   3.400   0.6897   0.00691   0.00206  -0.0586  0.4434  0.7787  -1.1850   0.0000   0.0000   0.0000   0.3291
   3.600   0.7114   0.00700   0.00215  -0.0585  0.4326  0.7910  -1.2129   0.0000   0.0000   0.0000   0.3263
   4.000   0.7558   0.00703   0.00233  -0.0585  0.4268  0.8206  -1.2703   0.0000   0.0000   0.0000   0.3211
   4.200   0.7778   0.00706   0.00240  -0.0585  0.4230  0.8354  -1.2991   0.0000   0.0000   0.0000   0.3187
   4.400   0.7995   0.00711   0.00248  -0.0584  0.4173  0.8504  -1.3277   0.0000   0.0000   0.0000   0.3164
   4.600   0.8199   0.00718   0.00257  -0.0581  0.4093  0.8699  -1.3584   0.0000   0.0000   0.0000   0.3139
   4.800   0.8397   0.00730   0.00267  -0.0577  0.3987  0.8892  -1.3899   0.0000   0.0000   0.0000   0.3115
   5.000   0.8587   0.00740   0.00279  -0.0570  0.3868  0.9149  -1.4206   0.0000   0.0000   0.0000   0.3091
   5.400   0.9059   0.00745   0.00295  -0.0576  0.3796  0.9738  -1.4910   0.0000   0.0000   0.0000   0.3058
   5.600   0.9371   0.00753   0.00303  -0.0597  0.3740  1.0000  -1.5381   0.0000   0.0000   0.0000   0.3057
   5.800   0.9584   0.00767   0.00313  -0.0597  0.3661  1.0000  -1.5769   0.0000   0.0000   0.0000   0.3040
   6.000   0.9791   0.00786   0.00325  -0.0596  0.3573  1.0000  -1.6153   0.0000   0.0000   0.0000   0.3024
   6.200   0.9997   0.00805   0.00339  -0.0595  0.3464  1.0000  -1.6537   0.0000   0.0000   0.0000   0.3008
   6.400   1.0206   0.00822   0.00354  -0.0594  0.3373  1.0000  -1.6926   0.0000   0.0000   0.0000   0.2993
   6.600   1.0427   0.00830   0.00364  -0.0596  0.3354  1.0000  -1.7448   0.0000   0.0000   0.0000   0.2979
   6.800   1.0644   0.00841   0.00376  -0.0596  0.3307  1.0000  -1.8112   0.0000   0.0000   0.0000   0.2965
   7.000   1.0844   0.00863   0.00391  -0.0594  0.3182  1.0000  -1.8774   0.0000   0.0000   0.0000   0.2951
   7.200   1.1024   0.00901   0.00424  -0.0590  0.2931  1.0000  -1.9525   0.0000   0.0000   0.0000   0.2935
   7.400   1.1229   0.00919   0.00439  -0.0589  0.2838  1.0000  -2.0378   0.0000   0.0000   0.0000   0.2922
   7.600   1.1408   0.00956   0.00464  -0.0584  0.2658  1.0000  -2.1703   0.0000   0.0000   0.0000   0.2907
   7.800   1.1599   0.00984   0.00486  -0.0581  0.2505  1.0000  -2.3332   0.0000   0.0000   0.0000   0.2893
   8.000   1.1802   0.01002   0.00504  -0.0580  0.2446  1.0000  -2.5055   0.0000   0.0000   0.0000   0.2881
   8.200   1.1990   0.01030   0.00527  -0.0576  0.2336  1.0000  -2.6754   0.0000   0.0000   0.0000   0.2868
   8.400   1.2161   0.01070   0.00556  -0.0571  0.2176  1.0000  -2.8424   0.0000   0.0000   0.0000   0.2854
   8.600   1.2354   0.01093   0.00578  -0.0568  0.2091  1.0000  -3.0222   0.0000   0.0000   0.0000   0.2841
   8.800   1.2532   0.01124   0.00606  -0.0563  0.1982  1.0000  -3.1997   0.0000   0.0000   0.0000   0.2828
   9.000   1.2681   0.01175   0.00643  -0.0555  0.1795  1.0000  -3.3670   0.0000   0.0000   0.0000   0.2813
   9.200   1.2855   0.01206   0.00672  -0.0550  0.1694  1.0000  -3.5498   0.0000   0.0000   0.0000   0.2800
   9.400   1.2987   0.01262   0.00716  -0.0539  0.1521  1.0000  -3.7152   0.0000   0.0000   0.0000   0.2784
   9.600   1.3132   0.01308   0.00755  -0.0529  0.1371  1.0000  -3.8898   0.0000   0.0000   0.0000   0.2770
   9.800   1.3237   0.01372   0.00807  -0.0515  0.1201  1.0000  -4.0478   0.0000   0.0000   0.0000   0.2753
  10.000   1.3354   0.01424   0.00852  -0.0501  0.1058  1.0000  -4.2136   0.0000   0.0000   0.0000   0.2736
  10.200   1.3395   0.01498   0.00914  -0.0476  0.0898  1.0000  -4.3438   0.0000   0.0000   0.0000   0.2713
  10.400   1.3463   0.01560   0.00970  -0.0455  0.0771  1.0000  -4.4977   0.0000   0.0000   0.0000   0.2693
  10.600   1.3502   0.01640   0.01041  -0.0433  0.0654  1.0000  -4.6371   0.0000   0.0000   0.0000   0.2672
  10.800   1.3572   0.01710   0.01112  -0.0415  0.0556  1.0000  -4.7857   0.0000   0.0000   0.0000   0.2654
  11.000   1.3614   0.01797   0.01193  -0.0396  0.0469  1.0000  -4.9273   0.0000   0.0000   0.0000   0.2636
  11.200   1.3678   0.01877   0.01271  -0.0381  0.0388  1.0000  -5.0829   0.0000   0.0000   0.0000   0.2620
  11.400   1.3739   0.01964   0.01356  -0.0366  0.0335  1.0000  -5.2386   0.0000   0.0000   0.0000   0.2605
  11.600   1.3761   0.02077   0.01463  -0.0349  0.0262  1.0000  -5.3703   0.0000   0.0000   0.0000   0.2588
  11.800   1.3814   0.02176   0.01561  -0.0336  0.0203  1.0000  -5.5200   0.0000   0.0000   0.0000   0.2574
  12.000   1.3777   0.02341   0.01720  -0.0317  0.0118  1.0000  -5.6122   0.0000   0.0000   0.0000   0.2558
  12.200   1.3696   0.02555   0.01930  -0.0297  0.0060  1.0000  -5.5877   0.0000   0.0000   0.0000   0.2540
  12.400   1.3736   0.02688   0.02074  -0.0287  0.0055  1.0000  -5.6851   0.0000   0.0000   0.0000   0.2528
  12.600   1.3787   0.02813   0.02209  -0.0278  0.0053  1.0000  -5.8070   0.0000   0.0000   0.0000   0.2517
  12.800   1.3811   0.02966   0.02371  -0.0270  0.0052  1.0000  -5.9190   0.0000   0.0000   0.0000   0.2507
  13.000   1.3840   0.03114   0.02528  -0.0262  0.0052  1.0000  -6.0359   0.0000   0.0000   0.0000   0.2497
  13.200   1.3868   0.03265   0.02688  -0.0255  0.0052  1.0000  -6.1544   0.0000   0.0000   0.0000   0.2487
  13.400   1.3861   0.03462   0.02894  -0.0250  0.0051  1.0000  -6.2525   0.0000   0.0000   0.0000   0.2479
  13.600   1.3872   0.03646   0.03087  -0.0245  0.0051  1.0000  -6.3621   0.0000   0.0000   0.0000   0.2471
  13.800   1.3876   0.03843   0.03293  -0.0240  0.0051  1.0000  -6.4671   0.0000   0.0000   0.0000   0.2464
  14.000   1.3843   0.04091   0.03551  -0.0239  0.0050  1.0000  -6.5486   0.0000   0.0000   0.0000   0.2459
  14.200   1.3834   0.04315   0.03785  -0.0237  0.0050  1.0000  -6.6450   0.0000   0.0000   0.0000   0.2453
  14.400   1.3805   0.04570   0.04050  -0.0237  0.0049  1.0000  -6.7274   0.0000   0.0000   0.0000   0.2449
  14.600   1.3757   0.04858   0.04348  -0.0239  0.0049  1.0000  -6.7961   0.0000   0.0000   0.0000   0.2447
  14.800   1.3731   0.05117   0.04615  -0.0240  0.0049  1.0000  -6.8788   0.0000   0.0000   0.0000   0.2443
  15.000   1.3674   0.05426   0.04935  -0.0244  0.0048  1.0000  -6.9400   0.0000   0.0000   0.0000   0.2443


