xflr5 v6.61

 Calculated polar for: S2027

 1 1 Reynolds number fixed          Mach number fixed         

 xtrf =   1.000 (top)        1.000 (bottom)
 Mach =   0.000     Re =     3.000 e 6     Ncrit =   9.000

  alpha     CL        CD       CDp       Cm    Top Xtr Bot Xtr   Cpmin    Chinge    XCp    
 ------- -------- --------- --------- -------- ------- ------- -------- --------- ---------
 -10.000  -0.4120   0.06245   0.06087  -0.0576  0.8081  0.0105  -3.1477   0.0000   0.0000   0.0000   0.0939
  -9.800  -0.4326   0.05583   0.05416  -0.0634  0.8043  0.0105  -3.3147   0.0000   0.0000   0.0000   0.0882
  -9.600  -0.4508   0.05117   0.04940  -0.0672  0.7970  0.0105  -3.4178   0.0000   0.0000   0.0000   0.0867
  -9.400  -0.4676   0.04774   0.04586  -0.0692  0.7862  0.0105  -3.4882   0.0000   0.0000   0.0000   0.0886
  -9.200  -0.4837   0.04512   0.04313  -0.0696  0.7715  0.0105  -3.5380   0.0000   0.0000   0.0000   0.0935
  -9.000  -0.4992   0.04318   0.04110  -0.0680  0.7642  0.0105  -3.5713   0.0000   0.0000   0.0000   0.1019
  -8.800  -0.5054   0.04100   0.03882  -0.0670  0.7610  0.0105  -3.5818   0.0000   0.0000   0.0000   0.1059
  -8.600  -0.5067   0.03877   0.03648  -0.0663  0.7559  0.0105  -3.5763   0.0000   0.0000   0.0000   0.1081
  -8.400  -0.5046   0.03663   0.03420  -0.0655  0.7487  0.0105  -3.5579   0.0000   0.0000   0.0000   0.1093
  -8.200  -0.4998   0.03457   0.03199  -0.0648  0.7395  0.0105  -3.5283   0.0000   0.0000   0.0000   0.1097
  -8.000  -0.4925   0.03259   0.02986  -0.0641  0.7275  0.0105  -3.4886   0.0000   0.0000   0.0000   0.1094
  -7.800  -0.4830   0.03068   0.02782  -0.0635  0.7198  0.0106  -3.4395   0.0000   0.0000   0.0000   0.1083
  -7.600  -0.4718   0.02885   0.02586  -0.0629  0.7175  0.0106  -3.3827   0.0000   0.0000   0.0000   0.1065
  -7.400  -0.4594   0.02712   0.02400  -0.0623  0.7137  0.0106  -3.3194   0.0000   0.0000   0.0000   0.1042
  -7.200  -0.4457   0.02549   0.02223  -0.0617  0.7081  0.0106  -3.2501   0.0000   0.0000   0.0000   0.1014
  -7.000  -0.4309   0.02396   0.02056  -0.0612  0.7011  0.0106  -3.1754   0.0000   0.0000   0.0000   0.0979
  -6.800  -0.4151   0.02254   0.01898  -0.0607  0.6928  0.0106  -3.0960   0.0000   0.0000   0.0000   0.0937
  -6.600  -0.3984   0.02119   0.01748  -0.0603  0.6826  0.0106  -3.0122   0.0000   0.0000   0.0000   0.0887
  -6.400  -0.3809   0.01986   0.01599  -0.0599  0.6734  0.0107  -2.9284   0.0000   0.0000   0.0000   0.0828
  -6.200  -0.3625   0.01864   0.01467  -0.0595  0.6720  0.0107  -2.8370   0.0000   0.0000   0.0000   0.0757
  -6.000  -0.3434   0.01750   0.01343  -0.0592  0.6696  0.0107  -2.7427   0.0000   0.0000   0.0000   0.0674
  -5.800  -0.3239   0.01645   0.01227  -0.0589  0.6653  0.0107  -2.6460   0.0000   0.0000   0.0000   0.0578
  -5.600  -0.3040   0.01548   0.01118  -0.0586  0.6579  0.0107  -2.5475   0.0000   0.0000   0.0000   0.0467
  -5.400  -0.2838   0.01460   0.01018  -0.0583  0.6483  0.0107  -2.4476   0.0000   0.0000   0.0000   0.0338
  -5.200  -0.2632   0.01377   0.00924  -0.0581  0.6374  0.0107  -2.3461   0.0000   0.0000   0.0000   0.0184
  -5.000  -0.2423   0.01299   0.00837  -0.0579  0.6275  0.0108  -2.2434   0.0000   0.0000   0.0000  -0.0001
  -3.200  -0.0534   0.00705   0.00149  -0.0552  0.5752  0.0217  -1.6102   0.0000   0.0000   0.0000  -0.8113
  -3.000  -0.0303   0.00693   0.00139  -0.0554  0.5734  0.0305  -1.4640   0.0000   0.0000   0.0000  -1.6188
  -2.800  -0.0083   0.00662   0.00125  -0.0554  0.5707  0.0733  -1.3278   0.0000   0.0000   0.0000  -6.5945
  -2.600   0.0136   0.00628   0.00112  -0.0556  0.5665  0.1262  -1.1948   0.0000   0.0000   0.0000   4.4232
  -2.400   0.0355   0.00602   0.00102  -0.0557  0.5598  0.1844  -1.0643   0.0000   0.0000   0.0000   1.8436
  -2.200   0.0573   0.00577   0.00094  -0.0558  0.5507  0.2412  -0.9378   0.0000   0.0000   0.0000   1.2379
  -2.000   0.0794   0.00559   0.00088  -0.0559  0.5387  0.2898  -0.8135   0.0000   0.0000   0.0000   0.9623
  -1.800   0.1013   0.00532   0.00082  -0.0560  0.5278  0.3663  -0.6940   0.0000   0.0000   0.0000   0.8083
  -1.600   0.1245   0.00522   0.00080  -0.0562  0.5262  0.3875  -0.6272   0.0000   0.0000   0.0000   0.7052
  -1.400   0.1475   0.00509   0.00078  -0.0564  0.5248  0.4234  -0.6453   0.0000   0.0000   0.0000   0.6346
  -1.200   0.1707   0.00503   0.00076  -0.0566  0.5226  0.4417  -0.6636   0.0000   0.0000   0.0000   0.5827
  -1.000   0.1938   0.00496   0.00076  -0.0568  0.5190  0.4709  -0.6819   0.0000   0.0000   0.0000   0.5433
  -0.800   0.2168   0.00493   0.00075  -0.0570  0.5136  0.4885  -0.7003   0.0000   0.0000   0.0000   0.5124
  -0.600   0.2400   0.00496   0.00076  -0.0572  0.5066  0.4940  -0.7198   0.0000   0.0000   0.0000   0.4872
  -0.400   0.2629   0.00497   0.00077  -0.0573  0.4973  0.5182  -0.7405   0.0000   0.0000   0.0000   0.4666
  -0.200   0.2858   0.00496   0.00078  -0.0575  0.4851  0.5342  -0.7613   0.0000   0.0000   0.0000   0.4493
   0.000   0.3092   0.00497   0.00079  -0.0577  0.4780  0.5426  -0.7825   0.0000   0.0000   0.0000   0.4345
   0.200   0.3327   0.00497   0.00080  -0.0579  0.4767  0.5467  -0.8039   0.0000   0.0000   0.0000   0.4217
   0.400   0.3562   0.00497   0.00080  -0.0582  0.4750  0.5587  -0.8254   0.0000   0.0000   0.0000   0.4106
   0.600   0.3794   0.00495   0.00082  -0.0584  0.4721  0.5759  -0.8468   0.0000   0.0000   0.0000   0.4009
   0.800   0.4025   0.00495   0.00084  -0.0586  0.4674  0.5878  -0.8682   0.0000   0.0000   0.0000   0.3923
   1.000   0.4256   0.00500   0.00087  -0.0587  0.4606  0.5937  -0.8896   0.0000   0.0000   0.0000   0.3846
   1.200   0.4485   0.00507   0.00089  -0.0589  0.4525  0.5972  -0.9122   0.0000   0.0000   0.0000   0.3777
   1.400   0.4716   0.00514   0.00092  -0.0591  0.4422  0.5994  -0.9366   0.0000   0.0000   0.0000   0.3715
   1.600   0.4947   0.00519   0.00095  -0.0593  0.4311  0.6060  -0.9612   0.0000   0.0000   0.0000   0.3659
   1.800   0.5180   0.00519   0.00097  -0.0595  0.4290  0.6181  -0.9861   0.0000   0.0000   0.0000   0.3607
   2.000   0.5412   0.00519   0.00101  -0.0598  0.4266  0.6301  -1.0110   0.0000   0.0000   0.0000   0.3560
   2.200   0.5643   0.00520   0.00104  -0.0600  0.4231  0.6395  -1.0360   0.0000   0.0000   0.0000   0.3517
   2.400   0.5872   0.00526   0.00108  -0.0601  0.4173  0.6454  -1.0609   0.0000   0.0000   0.0000   0.3476
   2.600   0.6100   0.00534   0.00113  -0.0603  0.4095  0.6488  -1.0858   0.0000   0.0000   0.0000   0.3439
   2.800   0.6327   0.00544   0.00117  -0.0605  0.4005  0.6511  -1.1107   0.0000   0.0000   0.0000   0.3404
   3.000   0.6556   0.00551   0.00122  -0.0606  0.3901  0.6553  -1.1374   0.0000   0.0000   0.0000   0.3371
   3.200   0.6785   0.00554   0.00127  -0.0608  0.3829  0.6693  -1.1662   0.0000   0.0000   0.0000   0.3341
   3.400   0.7016   0.00555   0.00132  -0.0610  0.3813  0.6805  -1.1954   0.0000   0.0000   0.0000   0.3313
   3.600   0.7245   0.00558   0.00136  -0.0612  0.3780  0.6886  -1.2245   0.0000   0.0000   0.0000   0.3286
   3.800   0.7471   0.00565   0.00145  -0.0614  0.3720  0.6958  -1.2536   0.0000   0.0000   0.0000   0.3260
   4.000   0.7695   0.00575   0.00152  -0.0615  0.3644  0.7010  -1.2825   0.0000   0.0000   0.0000   0.3236
   4.200   0.7917   0.00587   0.00159  -0.0616  0.3548  0.7055  -1.3115   0.0000   0.0000   0.0000   0.3213
   4.400   0.8140   0.00595   0.00166  -0.0617  0.3418  0.7209  -1.3406   0.0000   0.0000   0.0000   0.3191
   4.600   0.8366   0.00599   0.00173  -0.0619  0.3366  0.7327  -1.3739   0.0000   0.0000   0.0000   0.3170
   4.800   0.8593   0.00602   0.00179  -0.0620  0.3345  0.7432  -1.4080   0.0000   0.0000   0.0000   0.3151
   5.000   0.8819   0.00607   0.00186  -0.0622  0.3313  0.7507  -1.4422   0.0000   0.0000   0.0000   0.3132
   5.200   0.9041   0.00616   0.00194  -0.0623  0.3255  0.7642  -1.4762   0.0000   0.0000   0.0000   0.3113
   5.400   0.9256   0.00626   0.00204  -0.0623  0.3177  0.7814  -1.5108   0.0000   0.0000   0.0000   0.3095
   5.600   0.9473   0.00638   0.00214  -0.0623  0.3085  0.7929  -1.5498   0.0000   0.0000   0.0000   0.3078
   6.000   0.9910   0.00653   0.00233  -0.0624  0.2911  0.8219  -1.6291   0.0000   0.0000   0.0000   0.3045
   6.200   1.0111   0.00675   0.00248  -0.0622  0.2763  0.8379  -1.6673   0.0000   0.0000   0.0000   0.3028
   6.400   1.0310   0.00694   0.00264  -0.0619  0.2590  0.8599  -1.7053   0.0000   0.0000   0.0000   0.3011
   6.600   1.0522   0.00700   0.00274  -0.0618  0.2516  0.8811  -1.7591   0.0000   0.0000   0.0000   0.2996
   6.800   1.0723   0.00704   0.00285  -0.0615  0.2483  0.9114  -1.8234   0.0000   0.0000   0.0000   0.2979
   7.200   1.1096   0.00784   0.00347  -0.0608  0.1919  0.9873  -1.9733   0.0000   0.0000   0.0000   0.2949
   7.400   1.1315   0.00809   0.00365  -0.0611  0.1744  1.0000  -2.0649   0.0000   0.0000   0.0000   0.2938
   7.600   1.1509   0.00838   0.00387  -0.0608  0.1634  1.0000  -2.2268   0.0000   0.0000   0.0000   0.2924
   7.800   1.1690   0.00877   0.00414  -0.0604  0.1419  1.0000  -2.3872   0.0000   0.0000   0.0000   0.2909
   8.000   1.1880   0.00907   0.00437  -0.0601  0.1322  1.0000  -2.5561   0.0000   0.0000   0.0000   0.2896
   8.200   1.2051   0.00950   0.00468  -0.0595  0.1113  1.0000  -2.7199   0.0000   0.0000   0.0000   0.2881
   8.400   1.2227   0.00989   0.00498  -0.0589  0.0999  1.0000  -2.8901   0.0000   0.0000   0.0000   0.2867
   8.600   1.2392   0.01033   0.00532  -0.0583  0.0818  1.0000  -3.0589   0.0000   0.0000   0.0000   0.2852
   8.800   1.2545   0.01083   0.00571  -0.0574  0.0681  1.0000  -3.2254   0.0000   0.0000   0.0000   0.2837
   9.000   1.2721   0.01115   0.00599  -0.0569  0.0576  1.0000  -3.4068   0.0000   0.0000   0.0000   0.2824
   9.200   1.2867   0.01166   0.00640  -0.0560  0.0466  1.0000  -3.5766   0.0000   0.0000   0.0000   0.2808
   9.400   1.3036   0.01199   0.00669  -0.0553  0.0383  1.0000  -3.7614   0.0000   0.0000   0.0000   0.2795
   9.600   1.3190   0.01240   0.00705  -0.0545  0.0330  1.0000  -3.9424   0.0000   0.0000   0.0000   0.2780
   9.800   1.3340   0.01280   0.00740  -0.0536  0.0264  1.0000  -4.1241   0.0000   0.0000   0.0000   0.2766
  10.000   1.3507   0.01308   0.00767  -0.0529  0.0231  1.0000  -4.3253   0.0000   0.0000   0.0000   0.2753
  10.600   1.3821   0.01444   0.00897  -0.0479  0.0099  1.0000  -4.8552   0.0000   0.0000   0.0000   0.2699
  10.800   1.3915   0.01487   0.00939  -0.0461  0.0085  1.0000  -5.0318   0.0000   0.0000   0.0000   0.2680
  11.000   1.4003   0.01536   0.00987  -0.0444  0.0068  1.0000  -5.2048   0.0000   0.0000   0.0000   0.2662
  11.200   1.4090   0.01592   0.01046  -0.0426  0.0035  1.0000  -5.3230   0.0000   0.0000   0.0000   0.2645
  11.400   1.4197   0.01638   0.01096  -0.0413  0.0035  1.0000  -5.5063   0.0000   0.0000   0.0000   0.2630
  11.600   1.4309   0.01686   0.01147  -0.0401  0.0035  1.0000  -5.6967   0.0000   0.0000   0.0000   0.2616
  11.800   1.4407   0.01741   0.01205  -0.0389  0.0035  1.0000  -5.8820   0.0000   0.0000   0.0000   0.2602
  12.000   1.4509   0.01799   0.01267  -0.0377  0.0035  1.0000  -6.0701   0.0000   0.0000   0.0000   0.2588
  12.200   1.4607   0.01863   0.01335  -0.0365  0.0034  1.0000  -6.2525   0.0000   0.0000   0.0000   0.2575
  12.400   1.4678   0.01940   0.01418  -0.0352  0.0034  1.0000  -6.4185   0.0000   0.0000   0.0000   0.2561
  12.600   1.4757   0.02017   0.01500  -0.0340  0.0034  1.0000  -6.5899   0.0000   0.0000   0.0000   0.2548
  12.800   1.4824   0.02106   0.01596  -0.0328  0.0034  1.0000  -6.7541   0.0000   0.0000   0.0000   0.2535
  13.000   1.4875   0.02210   0.01706  -0.0315  0.0034  1.0000  -6.9085   0.0000   0.0000   0.0000   0.2522
  13.200   1.4937   0.02312   0.01815  -0.0305  0.0034  1.0000  -7.0715   0.0000   0.0000   0.0000   0.2510
  13.400   1.4969   0.02439   0.01949  -0.0293  0.0034  1.0000  -7.2154   0.0000   0.0000   0.0000   0.2498
  13.600   1.5005   0.02569   0.02086  -0.0283  0.0034  1.0000  -7.3626   0.0000   0.0000   0.0000   0.2486
  13.800   1.5047   0.02697   0.02221  -0.0274  0.0034  1.0000  -7.5154   0.0000   0.0000   0.0000   0.2476
  14.000   1.5041   0.02868   0.02400  -0.0265  0.0034  1.0000  -7.6369   0.0000   0.0000   0.0000   0.2465
  14.200   1.5056   0.03018   0.02556  -0.0256  0.0034  1.0000  -7.7739   0.0000   0.0000   0.0000   0.2455
  14.400   1.5074   0.03174   0.02719  -0.0248  0.0034  1.0000  -7.9140   0.0000   0.0000   0.0000   0.2446
  14.600   1.5038   0.03395   0.02948  -0.0242  0.0034  1.0000  -8.0156   0.0000   0.0000   0.0000   0.2438
  14.800   1.5049   0.03576   0.03135  -0.0237  0.0034  1.0000  -8.1527   0.0000   0.0000   0.0000   0.2430
  15.000   1.5050   0.03774   0.03341  -0.0233  0.0034  1.0000  -8.2831   0.0000   0.0000   0.0000   0.2423


