xflr5 v6.61

 Calculated polar for: S2027

 1 1 Reynolds number fixed          Mach number fixed         

 xtrf =   1.000 (top)        1.000 (bottom)
 Mach =   0.000     Re =     1.500 e 6     Ncrit =   9.000

  alpha     CL        CD       CDp       Cm    Top Xtr Bot Xtr   Cpmin    Chinge    XCp    
 ------- -------- --------- --------- -------- ------- ------- -------- --------- ---------
  -5.800  -0.3258   0.01668   0.01205  -0.0599  0.7107  0.0226  -2.5160   0.0000   0.0000   0.0000   0.0558
  -5.400  -0.2770   0.01891   0.01432  -0.0602  0.6970  0.0247  -2.1149   0.0000   0.0000   0.0000   0.0218
  -5.200  -0.2667   0.01376   0.00886  -0.0593  0.6896  0.0309  -2.1760   0.0000   0.0000   0.0000   0.0168
  -5.000  -0.2457   0.01347   0.00855  -0.0593  0.6784  0.0339  -2.0320   0.0000   0.0000   0.0000  -0.0026
  -4.800  -0.2241   0.01322   0.00827  -0.0594  0.6723  0.0376  -1.8962   0.0000   0.0000   0.0000  -0.0265
  -4.600  -0.2015   0.01309   0.00814  -0.0594  0.6693  0.0412  -1.7691   0.0000   0.0000   0.0000  -0.0569
  -4.400  -0.1771   0.01382   0.00890  -0.0595  0.6642  0.0434  -1.6227   0.0000   0.0000   0.0000  -0.0990
  -4.000  -0.1414   0.00889   0.00315  -0.0558  0.6527  0.0154  -1.9098   0.0000   0.0000   0.0000  -0.1592
  -3.800  -0.1192   0.00868   0.00284  -0.0557  0.6447  0.0143  -1.7968   0.0000   0.0000   0.0000  -0.2334
  -3.600  -0.0968   0.00853   0.00260  -0.0557  0.6344  0.0135  -1.6808   0.0000   0.0000   0.0000  -0.3432
  -3.400  -0.0742   0.00838   0.00238  -0.0557  0.6251  0.0129  -1.5675   0.0000   0.0000   0.0000  -0.5220
  -3.200  -0.0512   0.00822   0.00215  -0.0557  0.6234  0.0126  -1.4595   0.0000   0.0000   0.0000  -0.8676
  -3.000  -0.0281   0.00809   0.00192  -0.0558  0.6204  0.0126  -1.3511   0.0000   0.0000   0.0000  -1.7859
  -2.600   0.0119   0.00663   0.00133  -0.0556  0.6086  0.2399  -1.1972   0.0000   0.0000   0.0000   5.0109
  -2.400   0.0336   0.00639   0.00124  -0.0556  0.6005  0.2953  -1.0672   0.0000   0.0000   0.0000   1.9333
  -2.200   0.0555   0.00619   0.00118  -0.0557  0.5913  0.3505  -0.9404   0.0000   0.0000   0.0000   1.2697
  -2.000   0.0770   0.00593   0.00113  -0.0558  0.5809  0.4182  -0.8179   0.0000   0.0000   0.0000   0.9833
  -1.800   0.0995   0.00579   0.00111  -0.0559  0.5757  0.4617  -0.6963   0.0000   0.0000   0.0000   0.8173
  -1.600   0.1224   0.00567   0.00110  -0.0560  0.5739  0.4922  -0.6260   0.0000   0.0000   0.0000   0.7114
  -1.400   0.1455   0.00560   0.00109  -0.0562  0.5708  0.5176  -0.6441   0.0000   0.0000   0.0000   0.6385
  -1.200   0.1685   0.00557   0.00109  -0.0563  0.5656  0.5327  -0.6623   0.0000   0.0000   0.0000   0.5854
  -1.000   0.1916   0.00558   0.00108  -0.0565  0.5583  0.5426  -0.6806   0.0000   0.0000   0.0000   0.5451
  -0.800   0.2146   0.00563   0.00108  -0.0566  0.5499  0.5493  -0.6989   0.0000   0.0000   0.0000   0.5135
  -0.600   0.2374   0.00564   0.00108  -0.0567  0.5405  0.5669  -0.7180   0.0000   0.0000   0.0000   0.4881
  -0.400   0.2601   0.00564   0.00110  -0.0568  0.5306  0.5820  -0.7386   0.0000   0.0000   0.0000   0.4672
  -0.200   0.2834   0.00564   0.00112  -0.0570  0.5265  0.5915  -0.7596   0.0000   0.0000   0.0000   0.4495
   0.000   0.3069   0.00565   0.00112  -0.0572  0.5250  0.5971  -0.7809   0.0000   0.0000   0.0000   0.4345
   0.200   0.3304   0.00567   0.00113  -0.0575  0.5225  0.5998  -0.8023   0.0000   0.0000   0.0000   0.4216
   0.400   0.3536   0.00566   0.00112  -0.0577  0.5185  0.6105  -0.8235   0.0000   0.0000   0.0000   0.4104
   0.600   0.3765   0.00567   0.00114  -0.0578  0.5123  0.6237  -0.8447   0.0000   0.0000   0.0000   0.4006
   0.800   0.3991   0.00571   0.00117  -0.0579  0.5040  0.6342  -0.8658   0.0000   0.0000   0.0000   0.3919
   1.000   0.4217   0.00577   0.00120  -0.0580  0.4937  0.6415  -0.8869   0.0000   0.0000   0.0000   0.3841
   1.200   0.4446   0.00584   0.00123  -0.0582  0.4834  0.6469  -0.9091   0.0000   0.0000   0.0000   0.3772
   1.400   0.4678   0.00589   0.00126  -0.0583  0.4779  0.6506  -0.9336   0.0000   0.0000   0.0000   0.3709
   1.600   0.4912   0.00590   0.00128  -0.0586  0.4765  0.6544  -0.9584   0.0000   0.0000   0.0000   0.3652
   1.800   0.5143   0.00590   0.00131  -0.0588  0.4742  0.6662  -0.9831   0.0000   0.0000   0.0000   0.3601
   2.000   0.5373   0.00590   0.00135  -0.0589  0.4707  0.6769  -1.0079   0.0000   0.0000   0.0000   0.3553
   2.200   0.5601   0.00593   0.00139  -0.0591  0.4654  0.6866  -1.0326   0.0000   0.0000   0.0000   0.3509
   2.400   0.5826   0.00599   0.00143  -0.0592  0.4578  0.6945  -1.0573   0.0000   0.0000   0.0000   0.3468
   2.600   0.6050   0.00610   0.00148  -0.0593  0.4471  0.6998  -1.0818   0.0000   0.0000   0.0000   0.3430
   2.800   0.6275   0.00620   0.00154  -0.0594  0.4343  0.7029  -1.1065   0.0000   0.0000   0.0000   0.3395
   3.000   0.6503   0.00623   0.00159  -0.0595  0.4295  0.7140  -1.1328   0.0000   0.0000   0.0000   0.3362
   3.200   0.6731   0.00623   0.00164  -0.0597  0.4277  0.7284  -1.1615   0.0000   0.0000   0.0000   0.3331
   3.400   0.6958   0.00625   0.00170  -0.0598  0.4248  0.7394  -1.1904   0.0000   0.0000   0.0000   0.3302
   3.600   0.7185   0.00629   0.00176  -0.0600  0.4202  0.7475  -1.2193   0.0000   0.0000   0.0000   0.3275
   3.800   0.7410   0.00638   0.00185  -0.0601  0.4138  0.7525  -1.2482   0.0000   0.0000   0.0000   0.3250
   4.000   0.7627   0.00646   0.00193  -0.0601  0.4050  0.7698  -1.2766   0.0000   0.0000   0.0000   0.3224
   4.200   0.7841   0.00656   0.00203  -0.0600  0.3922  0.7848  -1.3048   0.0000   0.0000   0.0000   0.3200
   4.400   0.8061   0.00664   0.00211  -0.0601  0.3828  0.7961  -1.3336   0.0000   0.0000   0.0000   0.3178
   4.600   0.8286   0.00666   0.00218  -0.0601  0.3810  0.8113  -1.3664   0.0000   0.0000   0.0000   0.3156
   4.800   0.8505   0.00668   0.00226  -0.0601  0.3781  0.8280  -1.3998   0.0000   0.0000   0.0000   0.3135
   5.000   0.8725   0.00674   0.00234  -0.0602  0.3730  0.8408  -1.4335   0.0000   0.0000   0.0000   0.3116
   5.200   0.8932   0.00683   0.00244  -0.0599  0.3647  0.8607  -1.4661   0.0000   0.0000   0.0000   0.3095
   5.400   0.9134   0.00698   0.00255  -0.0597  0.3533  0.8802  -1.4984   0.0000   0.0000   0.0000   0.3075
   5.600   0.9327   0.00706   0.00267  -0.0591  0.3416  0.9080  -1.5346   0.0000   0.0000   0.0000   0.3053
   5.800   0.9519   0.00708   0.00276  -0.0584  0.3369  0.9386  -1.5714   0.0000   0.0000   0.0000   0.3031
   6.000   0.9757   0.00710   0.00284  -0.0588  0.3349  0.9703  -1.6131   0.0000   0.0000   0.0000   0.3018
   6.200   1.0070   0.00718   0.00293  -0.0609  0.3310  1.0000  -1.6624   0.0000   0.0000   0.0000   0.3018
   6.400   1.0284   0.00733   0.00304  -0.0609  0.3237  1.0000  -1.7021   0.0000   0.0000   0.0000   0.3003
   6.600   1.0478   0.00763   0.00321  -0.0607  0.3052  1.0000  -1.7527   0.0000   0.0000   0.0000   0.2987
   6.800   1.0687   0.00781   0.00335  -0.0606  0.2918  1.0000  -1.8182   0.0000   0.0000   0.0000   0.2973
   7.000   1.0902   0.00794   0.00347  -0.0606  0.2870  1.0000  -1.8904   0.0000   0.0000   0.0000   0.2959
   7.200   1.1067   0.00846   0.00384  -0.0600  0.2508  1.0000  -1.9644   0.0000   0.0000   0.0000   0.2943
   7.400   1.1275   0.00862   0.00399  -0.0599  0.2444  1.0000  -2.0502   0.0000   0.0000   0.0000   0.2929
   7.600   1.1462   0.00896   0.00423  -0.0596  0.2296  1.0000  -2.1993   0.0000   0.0000   0.0000   0.2915
   7.800   1.1653   0.00925   0.00444  -0.0593  0.2128  1.0000  -2.3632   0.0000   0.0000   0.0000   0.2901
   8.000   1.1858   0.00943   0.00461  -0.0592  0.2078  1.0000  -2.5374   0.0000   0.0000   0.0000   0.2889
   8.200   1.2041   0.00975   0.00487  -0.0588  0.1952  1.0000  -2.7067   0.0000   0.0000   0.0000   0.2875
   8.400   1.2214   0.01015   0.00516  -0.0583  0.1759  1.0000  -2.8749   0.0000   0.0000   0.0000   0.2861
   8.600   1.2403   0.01041   0.00539  -0.0579  0.1680  1.0000  -3.0546   0.0000   0.0000   0.0000   0.2849
   8.800   1.2552   0.01095   0.00578  -0.0571  0.1483  1.0000  -3.2194   0.0000   0.0000   0.0000   0.2833
   9.000   1.2726   0.01129   0.00607  -0.0565  0.1356  1.0000  -3.3991   0.0000   0.0000   0.0000   0.2820
   9.200   1.2857   0.01190   0.00653  -0.0554  0.1157  1.0000  -3.5614   0.0000   0.0000   0.0000   0.2804
   9.400   1.3013   0.01231   0.00688  -0.0546  0.1034  1.0000  -3.7394   0.0000   0.0000   0.0000   0.2790
   9.600   1.3124   0.01297   0.00741  -0.0532  0.0835  1.0000  -3.8975   0.0000   0.0000   0.0000   0.2773
   9.800   1.3248   0.01350   0.00787  -0.0520  0.0726  1.0000  -4.0649   0.0000   0.0000   0.0000   0.2756
  10.000   1.3356   0.01406   0.00835  -0.0505  0.0593  1.0000  -4.2268   0.0000   0.0000   0.0000   0.2739
  10.200   1.3441   0.01457   0.00881  -0.0485  0.0516  1.0000  -4.3863   0.0000   0.0000   0.0000   0.2719
  10.400   1.3500   0.01519   0.00937  -0.0462  0.0416  1.0000  -4.5366   0.0000   0.0000   0.0000   0.2698
  10.600   1.3594   0.01569   0.00989  -0.0446  0.0366  1.0000  -4.7041   0.0000   0.0000   0.0000   0.2680
  10.800   1.3652   0.01640   0.01055  -0.0426  0.0304  1.0000  -4.8531   0.0000   0.0000   0.0000   0.2661
  11.000   1.3731   0.01704   0.01117  -0.0410  0.0236  1.0000  -5.0181   0.0000   0.0000   0.0000   0.2644
  11.200   1.3810   0.01771   0.01183  -0.0395  0.0202  1.0000  -5.1852   0.0000   0.0000   0.0000   0.2628
  11.400   1.3817   0.01882   0.01287  -0.0374  0.0115  1.0000  -5.3096   0.0000   0.0000   0.0000   0.2609
  11.600   1.3878   0.01970   0.01374  -0.0359  0.0093  1.0000  -5.4635   0.0000   0.0000   0.0000   0.2594


