xflr5 v6.61

 Calculated polar for: NACA 2415

 1 1 Reynolds number fixed          Mach number fixed         

 xtrf =   1.000 (top)        1.000 (bottom)
 Mach =   0.000     Re =     1.000 e 6     Ncrit =   9.000

  alpha     CL        CD       CDp       Cm    Top Xtr Bot Xtr   Cpmin    Chinge    XCp    
 ------- -------- --------- --------- -------- ------- ------- -------- --------- ---------
 -10.000  -0.8603   0.01416   0.00860  -0.0561  0.9829  0.0364  -4.6951   0.0000   0.0000   0.0000   0.1711
  -9.800  -0.8350   0.01352   0.00791  -0.0571  0.9819  0.0390  -4.5591   0.0000   0.0000   0.0000   0.1680
  -9.600  -0.8082   0.01312   0.00752  -0.0583  0.9809  0.0411  -4.4101   0.0000   0.0000   0.0000   0.1644
  -9.400  -0.7835   0.01282   0.00723  -0.0590  0.9790  0.0428  -4.2663   0.0000   0.0000   0.0000   0.1614
  -9.200  -0.7626   0.01256   0.00698  -0.0587  0.9749  0.0443  -4.1352   0.0000   0.0000   0.0000   0.1598
  -9.000  -0.7388   0.01233   0.00672  -0.0591  0.9716  0.0456  -3.9956   0.0000   0.0000   0.0000   0.1569
  -8.800  -0.7144   0.01212   0.00649  -0.0596  0.9686  0.0466  -3.8566   0.0000   0.0000   0.0000   0.1537
  -8.600  -0.6900   0.01194   0.00629  -0.0600  0.9657  0.0471  -3.7183   0.0000   0.0000   0.0000   0.1502
  -8.400  -0.6694   0.01155   0.00589  -0.0597  0.9615  0.0509  -3.5996   0.0000   0.0000   0.0000   0.1481
  -8.200  -0.6503   0.01129   0.00566  -0.0591  0.9556  0.0538  -3.4812   0.0000   0.0000   0.0000   0.1466
  -8.000  -0.6294   0.01107   0.00545  -0.0588  0.9503  0.0562  -3.3585   0.0000   0.0000   0.0000   0.1442
  -7.800  -0.6073   0.01090   0.00525  -0.0587  0.9456  0.0581  -3.2337   0.0000   0.0000   0.0000   0.1411
  -7.600  -0.5864   0.01077   0.00510  -0.0583  0.9402  0.0591  -3.1138   0.0000   0.0000   0.0000   0.1383
  -7.400  -0.5667   0.01049   0.00482  -0.0578  0.9343  0.0636  -3.0022   0.0000   0.0000   0.0000   0.1359
  -7.200  -0.5458   0.01026   0.00460  -0.0574  0.9289  0.0673  -2.8875   0.0000   0.0000   0.0000   0.1327
  -7.000  -0.5241   0.01009   0.00442  -0.0572  0.9236  0.0704  -2.7806   0.0000   0.0000   0.0000   0.1288
  -6.800  -0.5027   0.00997   0.00428  -0.0570  0.9182  0.0723  -2.6804   0.0000   0.0000   0.0000   0.1246
  -6.600  -0.4818   0.00975   0.00407  -0.0567  0.9115  0.0776  -2.5845   0.0000   0.0000   0.0000   0.1205
  -6.400  -0.4607   0.00956   0.00389  -0.0564  0.9047  0.0825  -2.4878   0.0000   0.0000   0.0000   0.1158
  -6.200  -0.4390   0.00943   0.00375  -0.0562  0.8982  0.0861  -2.3907   0.0000   0.0000   0.0000   0.1101
  -6.000  -0.4175   0.00926   0.00359  -0.0560  0.8911  0.0918  -2.2959   0.0000   0.0000   0.0000   0.1040
  -5.800  -0.3962   0.00908   0.00344  -0.0557  0.8839  0.0986  -2.2022   0.0000   0.0000   0.0000   0.0974
  -5.600  -0.3742   0.00899   0.00331  -0.0555  0.8766  0.1028  -2.1082   0.0000   0.0000   0.0000   0.0895
  -5.400  -0.3526   0.00880   0.00315  -0.0554  0.8700  0.1115  -2.0178   0.0000   0.0000   0.0000   0.0808
  -5.200  -0.3308   0.00867   0.00303  -0.0552  0.8618  0.1179  -1.9268   0.0000   0.0000   0.0000   0.0708
  -5.000  -0.3092   0.00855   0.00289  -0.0550  0.8528  0.1257  -1.8376   0.0000   0.0000   0.0000   0.0598
  -4.800  -0.2873   0.00841   0.00278  -0.0548  0.8450  0.1341  -1.7491   0.0000   0.0000   0.0000   0.0464
  -4.600  -0.2653   0.00829   0.00267  -0.0547  0.8359  0.1426  -1.6709   0.0000   0.0000   0.0000   0.0309
  -4.400  -0.2438   0.00817   0.00256  -0.0545  0.8265  0.1534  -1.5964   0.0000   0.0000   0.0000   0.0132
  -4.200  -0.2217   0.00805   0.00246  -0.0544  0.8185  0.1644  -1.5221   0.0000   0.0000   0.0000  -0.0091
  -4.000  -0.1997   0.00794   0.00237  -0.0542  0.8085  0.1746  -1.4490   0.0000   0.0000   0.0000  -0.0360
  -3.800  -0.1781   0.00786   0.00227  -0.0540  0.7975  0.1862  -1.3776   0.0000   0.0000   0.0000  -0.0682
  -3.600  -0.1558   0.00776   0.00219  -0.0540  0.7886  0.1967  -1.3061   0.0000   0.0000   0.0000  -0.1125
  -3.400  -0.1340   0.00765   0.00210  -0.0538  0.7781  0.2116  -1.2364   0.0000   0.0000   0.0000  -0.1687
  -3.200  -0.1122   0.00758   0.00203  -0.0536  0.7677  0.2253  -1.1714   0.0000   0.0000   0.0000  -0.2473
  -3.000  -0.0900   0.00748   0.00197  -0.0536  0.7575  0.2394  -1.1114   0.0000   0.0000   0.0000  -0.3671
  -2.800  -0.0684   0.00742   0.00190  -0.0533  0.7452  0.2536  -1.0530   0.0000   0.0000   0.0000  -0.5567
  -2.600  -0.0461   0.00735   0.00185  -0.0533  0.7352  0.2677  -0.9944   0.0000   0.0000   0.0000  -0.9416
  -2.400  -0.0242   0.00726   0.00180  -0.0531  0.7242  0.2863  -0.9371   0.0000   0.0000   0.0000  -2.0096
  -2.200  -0.0026   0.00721   0.00175  -0.0529  0.7119  0.3033  -0.8831   0.0000   0.0000   0.0000  -20.3535
  -2.000   0.0198   0.00715   0.00172  -0.0529  0.7016  0.3186  -0.8333   0.0000   0.0000   0.0000   2.9732
  -1.800   0.0414   0.00710   0.00168  -0.0527  0.6889  0.3387  -0.7852   0.0000   0.0000   0.0000   1.5463
  -1.600   0.0633   0.00702   0.00164  -0.0526  0.6785  0.3600  -0.7373   0.0000   0.0000   0.0000   1.0932
  -1.400   0.0853   0.00695   0.00161  -0.0524  0.6671  0.3800  -0.6914   0.0000   0.0000   0.0000   0.8725
  -1.200   0.1066   0.00692   0.00158  -0.0522  0.6539  0.4042  -0.6505   0.0000   0.0000   0.0000   0.7444
  -1.000   0.1286   0.00681   0.00156  -0.0521  0.6440  0.4337  -0.6094   0.0000   0.0000   0.0000   0.6579
  -0.800   0.1501   0.00675   0.00155  -0.0519  0.6321  0.4635  -0.6026   0.0000   0.0000   0.0000   0.5971
  -0.600   0.1716   0.00668   0.00155  -0.0517  0.6212  0.4963  -0.6207   0.0000   0.0000   0.0000   0.5515
  -0.400   0.1934   0.00661   0.00155  -0.0515  0.6104  0.5279  -0.6391   0.0000   0.0000   0.0000   0.5159
  -0.200   0.2146   0.00659   0.00156  -0.0513  0.5976  0.5563  -0.6571   0.0000   0.0000   0.0000   0.4876
   0.000   0.2366   0.00653   0.00157  -0.0511  0.5889  0.5858  -0.6764   0.0000   0.0000   0.0000   0.4642
   0.200   0.2583   0.00650   0.00158  -0.0510  0.5781  0.6129  -0.6963   0.0000   0.0000   0.0000   0.4448
   0.400   0.2795   0.00650   0.00161  -0.0507  0.5657  0.6390  -0.7159   0.0000   0.0000   0.0000   0.4284
   0.600   0.3016   0.00645   0.00163  -0.0505  0.5580  0.6656  -0.7368   0.0000   0.0000   0.0000   0.4143
   0.800   0.3233   0.00645   0.00166  -0.0503  0.5480  0.6903  -0.7584   0.0000   0.0000   0.0000   0.4021
   1.000   0.3445   0.00647   0.00169  -0.0500  0.5364  0.7156  -0.7798   0.0000   0.0000   0.0000   0.3913
   1.200   0.3665   0.00644   0.00173  -0.0498  0.5294  0.7409  -0.8027   0.0000   0.0000   0.0000   0.3819
   1.400   0.3880   0.00643   0.00177  -0.0496  0.5204  0.7660  -0.8261   0.0000   0.0000   0.0000   0.3733
   1.600   0.4088   0.00647   0.00183  -0.0491  0.5094  0.7908  -0.8493   0.0000   0.0000   0.0000   0.3656
   1.800   0.4305   0.00645   0.00188  -0.0489  0.5028  0.8141  -0.8748   0.0000   0.0000   0.0000   0.3586
   2.000   0.4519   0.00645   0.00194  -0.0485  0.4950  0.8368  -0.9006   0.0000   0.0000   0.0000   0.3523
   2.200   0.4728   0.00651   0.00201  -0.0481  0.4856  0.8580  -0.9272   0.0000   0.0000   0.0000   0.3464
   2.400   0.4939   0.00656   0.00207  -0.0477  0.4772  0.8785  -0.9550   0.0000   0.0000   0.0000   0.3410
   2.600   0.5152   0.00658   0.00214  -0.0473  0.4708  0.8978  -0.9844   0.0000   0.0000   0.0000   0.3361
   2.800   0.5360   0.00665   0.00222  -0.0468  0.4626  0.9145  -1.0148   0.0000   0.0000   0.0000   0.3314
   3.000   0.5566   0.00676   0.00230  -0.0463  0.4526  0.9293  -1.0467   0.0000   0.0000   0.0000   0.3270
   3.200   0.5781   0.00682   0.00237  -0.0459  0.4465  0.9431  -1.0809   0.0000   0.0000   0.0000   0.3231
   3.400   0.6011   0.00690   0.00245  -0.0459  0.4388  0.9535  -1.1192   0.0000   0.0000   0.0000   0.3199
   3.600   0.6225   0.00703   0.00253  -0.0456  0.4295  0.9641  -1.1570   0.0000   0.0000   0.0000   0.3166
   3.800   0.6490   0.00715   0.00262  -0.0465  0.4203  0.9704  -1.2039   0.0000   0.0000   0.0000   0.3147
   4.000   0.6736   0.00725   0.00272  -0.0469  0.4126  0.9775  -1.2509   0.0000   0.0000   0.0000   0.3125
   4.200   0.7004   0.00740   0.00281  -0.0478  0.4015  0.9820  -1.3039   0.0000   0.0000   0.0000   0.3110
   4.400   0.7302   0.00754   0.00291  -0.0494  0.3912  0.9849  -1.3632   0.0000   0.0000   0.0000   0.3103
   4.600   0.7606   0.00768   0.00301  -0.0512  0.3801  0.9879  -1.4280   0.0000   0.0000   0.0000   0.3097
   4.800   0.7895   0.00788   0.00313  -0.0527  0.3665  0.9915  -1.4921   0.0000   0.0000   0.0000   0.3090
   5.000   0.8205   0.00802   0.00324  -0.0546  0.3555  0.9938  -1.5672   0.0000   0.0000   0.0000   0.3086
   5.200   0.8507   0.00824   0.00336  -0.0564  0.3402  0.9956  -1.6421   0.0000   0.0000   0.0000   0.3082
   5.400   0.8797   0.00838   0.00346  -0.0579  0.3284  0.9973  -1.7162   0.0000   0.0000   0.0000   0.3075
   5.600   0.9074   0.00860   0.00362  -0.0593  0.3138  0.9990  -1.7981   0.0000   0.0000   0.0000   0.3067
   5.800   0.9325   0.00878   0.00374  -0.0600  0.3002  1.0000  -1.8775   0.0000   0.0000   0.0000   0.3056
   6.000   0.9479   0.00897   0.00386  -0.0587  0.2879  1.0000  -1.9412   0.0000   0.0000   0.0000   0.3029
   6.200   0.9640   0.00912   0.00397  -0.0575  0.2777  1.0000  -2.0070   0.0000   0.0000   0.0000   0.3004
   6.400   0.9790   0.00934   0.00412  -0.0561  0.2646  1.0000  -2.0713   0.0000   0.0000   0.0000   0.2978
   6.600   0.9947   0.00952   0.00425  -0.0548  0.2526  1.0000  -2.1412   0.0000   0.0000   0.0000   0.2954
   6.800   1.0097   0.00976   0.00441  -0.0534  0.2392  1.0000  -2.2158   0.0000   0.0000   0.0000   0.2929
   7.000   1.0252   0.00997   0.00457  -0.0521  0.2274  1.0000  -2.2926   0.0000   0.0000   0.0000   0.2906
   7.200   1.0409   0.01020   0.00475  -0.0508  0.2160  1.0000  -2.3702   0.0000   0.0000   0.0000   0.2884
   7.400   1.0565   0.01044   0.00494  -0.0496  0.2046  1.0000  -2.4489   0.0000   0.0000   0.0000   0.2863
   7.600   1.0722   0.01069   0.00514  -0.0483  0.1931  1.0000  -2.5284   0.0000   0.0000   0.0000   0.2842
   7.800   1.0872   0.01100   0.00536  -0.0470  0.1797  1.0000  -2.6073   0.0000   0.0000   0.0000   0.2821
   8.000   1.1037   0.01126   0.00557  -0.0460  0.1685  1.0000  -2.6898   0.0000   0.0000   0.0000   0.2803
   8.200   1.1191   0.01160   0.00583  -0.0448  0.1559  1.0000  -2.7709   0.0000   0.0000   0.0000   0.2784
   8.400   1.1361   0.01186   0.00605  -0.0439  0.1473  1.0000  -2.8564   0.0000   0.0000   0.0000   0.2767
   8.600   1.1520   0.01219   0.00632  -0.0428  0.1368  1.0000  -2.9514   0.0000   0.0000   0.0000   0.2750
   8.800   1.1689   0.01247   0.00656  -0.0419  0.1290  1.0000  -3.0507   0.0000   0.0000   0.0000   0.2734
   9.000   1.1844   0.01283   0.00686  -0.0408  0.1193  1.0000  -3.1472   0.0000   0.0000   0.0000   0.2717
   9.200   1.2012   0.01310   0.00711  -0.0399  0.1131  1.0000  -3.2485   0.0000   0.0000   0.0000   0.2702
   9.400   1.2160   0.01350   0.00746  -0.0387  0.1042  1.0000  -3.3456   0.0000   0.0000   0.0000   0.2686
   9.600   1.2322   0.01379   0.00774  -0.0378  0.0984  1.0000  -3.4476   0.0000   0.0000   0.0000   0.2671
   9.800   1.2464   0.01418   0.00807  -0.0365  0.0912  1.0000  -3.5448   0.0000   0.0000   0.0000   0.2654
  10.000   1.2605   0.01451   0.00839  -0.0352  0.0855  1.0000  -3.6428   0.0000   0.0000   0.0000   0.2637
  10.200   1.2743   0.01484   0.00870  -0.0338  0.0812  1.0000  -3.7408   0.0000   0.0000   0.0000   0.2621
  10.400   1.2866   0.01525   0.00907  -0.0322  0.0761  1.0000  -3.8354   0.0000   0.0000   0.0000   0.2603
  10.600   1.3001   0.01562   0.00944  -0.0308  0.0718  1.0000  -3.9339   0.0000   0.0000   0.0000   0.2587
  10.800   1.3144   0.01596   0.00979  -0.0296  0.0690  1.0000  -4.0358   0.0000   0.0000   0.0000   0.2572
  11.000   1.3270   0.01639   0.01020  -0.0283  0.0655  1.0000  -4.1339   0.0000   0.0000   0.0000   0.2556
  11.200   1.3386   0.01690   0.01068  -0.0268  0.0612  1.0000  -4.2286   0.0000   0.0000   0.0000   0.2540
  11.400   1.3520   0.01732   0.01112  -0.0256  0.0586  1.0000  -4.3297   0.0000   0.0000   0.0000   0.2526
  11.600   1.3657   0.01772   0.01156  -0.0245  0.0569  1.0000  -4.4330   0.0000   0.0000   0.0000   0.2513
  11.800   1.3781   0.01820   0.01204  -0.0232  0.0547  1.0000  -4.5406   0.0000   0.0000   0.0000   0.2499
  12.000   1.3891   0.01877   0.01260  -0.0219  0.0521  1.0000  -4.6509   0.0000   0.0000   0.0000   0.2484
  12.200   1.3989   0.01943   0.01325  -0.0204  0.0489  1.0000  -4.7563   0.0000   0.0000   0.0000   0.2469
  12.400   1.4098   0.02004   0.01389  -0.0191  0.0469  1.0000  -4.8664   0.0000   0.0000   0.0000   0.2456
  12.600   1.4227   0.02053   0.01442  -0.0181  0.0461  1.0000  -4.9866   0.0000   0.0000   0.0000   0.2444
  12.800   1.4347   0.02109   0.01500  -0.0171  0.0448  1.0000  -5.1043   0.0000   0.0000   0.0000   0.2432
  13.000   1.4453   0.02176   0.01568  -0.0160  0.0433  1.0000  -5.2174   0.0000   0.0000   0.0000   0.2420
  13.200   1.4546   0.02253   0.01645  -0.0148  0.0416  1.0000  -5.3263   0.0000   0.0000   0.0000   0.2407
  13.400   1.4628   0.02340   0.01733  -0.0136  0.0396  1.0000  -5.4309   0.0000   0.0000   0.0000   0.2395
  13.600   1.4687   0.02445   0.01841  -0.0122  0.0375  1.0000  -5.5247   0.0000   0.0000   0.0000   0.2381
  13.800   1.4754   0.02547   0.01947  -0.0110  0.0363  1.0000  -5.6226   0.0000   0.0000   0.0000   0.2369
  14.000   1.4861   0.02623   0.02029  -0.0102  0.0359  1.0000  -5.7394   0.0000   0.0000   0.0000   0.2359
  14.200   1.4962   0.02706   0.02117  -0.0094  0.0355  1.0000  -5.8546   0.0000   0.0000   0.0000   0.2350
  14.400   1.5050   0.02801   0.02216  -0.0087  0.0348  1.0000  -5.9653   0.0000   0.0000   0.0000   0.2340
  14.600   1.5134   0.02903   0.02322  -0.0079  0.0341  1.0000  -6.0741   0.0000   0.0000   0.0000   0.2330
  14.800   1.5200   0.03021   0.02444  -0.0071  0.0333  1.0000  -6.1760   0.0000   0.0000   0.0000   0.2321
  15.000   1.5262   0.03145   0.02571  -0.0064  0.0325  1.0000  -6.2767   0.0000   0.0000   0.0000   0.2312


