xflr5 v6.61

 Calculated polar for: NACA 2415

 1 1 Reynolds number fixed          Mach number fixed         

 xtrf =   1.000 (top)        1.000 (bottom)
 Mach =   0.000     Re =     2.500 e 6     Ncrit =   9.000

  alpha     CL        CD       CDp       Cm    Top Xtr Bot Xtr   Cpmin    Chinge    XCp    
 ------- -------- --------- --------- -------- ------- ------- -------- --------- ---------
 -10.000  -0.8649   0.01047   0.00554  -0.0558  0.9534  0.0310  -4.7780   0.0000   0.0000   0.0000   0.1718
  -9.800  -0.8448   0.01026   0.00533  -0.0554  0.9478  0.0324  -4.6424   0.0000   0.0000   0.0000   0.1710
  -9.600  -0.8241   0.01006   0.00513  -0.0551  0.9427  0.0336  -4.5056   0.0000   0.0000   0.0000   0.1699
  -9.400  -0.8030   0.00989   0.00496  -0.0548  0.9371  0.0346  -4.3689   0.0000   0.0000   0.0000   0.1686
  -9.200  -0.7820   0.00974   0.00479  -0.0546  0.9304  0.0354  -4.2336   0.0000   0.0000   0.0000   0.1673
  -9.000  -0.7608   0.00961   0.00462  -0.0543  0.9233  0.0359  -4.0985   0.0000   0.0000   0.0000   0.1659
  -8.800  -0.7387   0.00948   0.00449  -0.0542  0.9191  0.0363  -3.9630   0.0000   0.0000   0.0000   0.1640
  -8.600  -0.7169   0.00934   0.00433  -0.0541  0.9137  0.0371  -3.8308   0.0000   0.0000   0.0000   0.1620
  -8.400  -0.6958   0.00915   0.00413  -0.0539  0.9074  0.0400  -3.7041   0.0000   0.0000   0.0000   0.1602
  -8.200  -0.6745   0.00898   0.00395  -0.0536  0.9005  0.0425  -3.5772   0.0000   0.0000   0.0000   0.1583
  -8.000  -0.6526   0.00881   0.00380  -0.0536  0.8959  0.0444  -3.4494   0.0000   0.0000   0.0000   0.1558
  -7.800  -0.6306   0.00868   0.00367  -0.0535  0.8891  0.0459  -3.3230   0.0000   0.0000   0.0000   0.1532
  -7.600  -0.6088   0.00859   0.00354  -0.0533  0.8806  0.0468  -3.1984   0.0000   0.0000   0.0000   0.1505
  -7.400  -0.5864   0.00849   0.00342  -0.0533  0.8738  0.0475  -3.0744   0.0000   0.0000   0.0000   0.1474
  -7.200  -0.5645   0.00832   0.00325  -0.0532  0.8674  0.0521  -2.9554   0.0000   0.0000   0.0000   0.1441
  -7.000  -0.5428   0.00817   0.00311  -0.0530  0.8594  0.0557  -2.8403   0.0000   0.0000   0.0000   0.1407
  -6.800  -0.5208   0.00807   0.00299  -0.0529  0.8507  0.0579  -2.7372   0.0000   0.0000   0.0000   0.1368
  -6.600  -0.4981   0.00798   0.00289  -0.0529  0.8451  0.0591  -2.6337   0.0000   0.0000   0.0000   0.1322
  -6.400  -0.4759   0.00787   0.00277  -0.0528  0.8365  0.0630  -2.5335   0.0000   0.0000   0.0000   0.1274
  -6.200  -0.4543   0.00775   0.00265  -0.0527  0.8251  0.0676  -2.4356   0.0000   0.0000   0.0000   0.1225
  -6.000  -0.4317   0.00764   0.00254  -0.0527  0.8184  0.0708  -2.3367   0.0000   0.0000   0.0000   0.1164
  -5.800  -0.4092   0.00757   0.00245  -0.0526  0.8088  0.0725  -2.2390   0.0000   0.0000   0.0000   0.1098
  -5.600  -0.3873   0.00748   0.00235  -0.0525  0.7977  0.0785  -2.1446   0.0000   0.0000   0.0000   0.1028
  -5.400  -0.3648   0.00736   0.00224  -0.0525  0.7911  0.0836  -2.0506   0.0000   0.0000   0.0000   0.0943
  -5.200  -0.3423   0.00729   0.00216  -0.0525  0.7806  0.0867  -1.9571   0.0000   0.0000   0.0000   0.0849
  -5.000  -0.3203   0.00720   0.00206  -0.0524  0.7686  0.0946  -1.8664   0.0000   0.0000   0.0000   0.0745
  -4.800  -0.2978   0.00710   0.00197  -0.0523  0.7602  0.1007  -1.7757   0.0000   0.0000   0.0000   0.0620
  -4.600  -0.2753   0.00706   0.00190  -0.0523  0.7489  0.1051  -1.6923   0.0000   0.0000   0.0000   0.0476
  -4.400  -0.2531   0.00696   0.00182  -0.0522  0.7388  0.1136  -1.6162   0.0000   0.0000   0.0000   0.0308
  -4.200  -0.2304   0.00690   0.00175  -0.0523  0.7290  0.1188  -1.5402   0.0000   0.0000   0.0000   0.0099
  -4.000  -0.2083   0.00685   0.00169  -0.0522  0.7147  0.1273  -1.4665   0.0000   0.0000   0.0000  -0.0141
  -3.800  -0.1856   0.00677   0.00162  -0.0522  0.7062  0.1352  -1.3927   0.0000   0.0000   0.0000  -0.0455
  -3.600  -0.1632   0.00670   0.00156  -0.0521  0.6953  0.1455  -1.3208   0.0000   0.0000   0.0000  -0.0848
  -3.400  -0.1409   0.00665   0.00150  -0.0521  0.6825  0.1549  -1.2497   0.0000   0.0000   0.0000  -0.1360
  -3.200  -0.1182   0.00658   0.00145  -0.0521  0.6734  0.1647  -1.1812   0.0000   0.0000   0.0000  -0.2091
  -3.000  -0.0960   0.00655   0.00140  -0.0520  0.6596  0.1740  -1.1209   0.0000   0.0000   0.0000  -0.3129
  -2.800  -0.0732   0.00650   0.00136  -0.0521  0.6500  0.1843  -1.0607   0.0000   0.0000   0.0000  -0.4861
  -2.600  -0.0506   0.00644   0.00132  -0.0521  0.6398  0.1963  -1.0016   0.0000   0.0000   0.0000  -0.8104
  -2.400  -0.0285   0.00640   0.00128  -0.0520  0.6249  0.2109  -0.9440   0.0000   0.0000   0.0000  -1.6228
  -2.200  -0.0055   0.00636   0.00125  -0.0521  0.6170  0.2194  -0.8869   0.0000   0.0000   0.0000  -9.3919
  -2.000   0.0168   0.00632   0.00122  -0.0520  0.6051  0.2343  -0.8373   0.0000   0.0000   0.0000   3.4209
  -1.800   0.0394   0.00629   0.00120  -0.0520  0.5936  0.2472  -0.7879   0.0000   0.0000   0.0000   1.5953
  -1.600   0.0620   0.00623   0.00117  -0.0521  0.5849  0.2633  -0.7390   0.0000   0.0000   0.0000   1.1023
  -1.400   0.0843   0.00622   0.00115  -0.0520  0.5717  0.2775  -0.6923   0.0000   0.0000   0.0000   0.8745
  -1.200   0.1072   0.00620   0.00114  -0.0521  0.5626  0.2897  -0.6499   0.0000   0.0000   0.0000   0.7404
  -1.000   0.1298   0.00614   0.00112  -0.0521  0.5540  0.3099  -0.6083   0.0000   0.0000   0.0000   0.6540
  -0.800   0.1521   0.00614   0.00112  -0.0520  0.5410  0.3258  -0.6038   0.0000   0.0000   0.0000   0.5934
  -0.600   0.1749   0.00611   0.00111  -0.0521  0.5330  0.3403  -0.6227   0.0000   0.0000   0.0000   0.5479
  -0.400   0.1975   0.00605   0.00111  -0.0521  0.5250  0.3625  -0.6414   0.0000   0.0000   0.0000   0.5131
  -0.200   0.2197   0.00604   0.00111  -0.0521  0.5136  0.3828  -0.6601   0.0000   0.0000   0.0000   0.4856
   0.000   0.2425   0.00601   0.00111  -0.0521  0.5052  0.4030  -0.6799   0.0000   0.0000   0.0000   0.4630
   0.200   0.2649   0.00594   0.00111  -0.0521  0.4985  0.4325  -0.7002   0.0000   0.0000   0.0000   0.4443
   0.400   0.2871   0.00590   0.00112  -0.0521  0.4893  0.4615  -0.7204   0.0000   0.0000   0.0000   0.4285
   0.600   0.3094   0.00587   0.00114  -0.0520  0.4785  0.4893  -0.7415   0.0000   0.0000   0.0000   0.4150
   0.800   0.3320   0.00581   0.00115  -0.0521  0.4738  0.5186  -0.7637   0.0000   0.0000   0.0000   0.4033
   1.000   0.3546   0.00579   0.00117  -0.0521  0.4667  0.5423  -0.7860   0.0000   0.0000   0.0000   0.3930
   1.200   0.3768   0.00579   0.00120  -0.0520  0.4567  0.5665  -0.8092   0.0000   0.0000   0.0000   0.3840
   1.400   0.3993   0.00576   0.00122  -0.0520  0.4492  0.5930  -0.8334   0.0000   0.0000   0.0000   0.3759
   1.600   0.4220   0.00573   0.00125  -0.0520  0.4443  0.6170  -0.8580   0.0000   0.0000   0.0000   0.3687
   1.800   0.4443   0.00572   0.00128  -0.0520  0.4368  0.6412  -0.8843   0.0000   0.0000   0.0000   0.3622
   2.000   0.4665   0.00575   0.00133  -0.0519  0.4266  0.6632  -0.9105   0.0000   0.0000   0.0000   0.3563
   2.200   0.4892   0.00575   0.00137  -0.0520  0.4205  0.6845  -0.9390   0.0000   0.0000   0.0000   0.3510
   2.400   0.5117   0.00572   0.00140  -0.0519  0.4148  0.7098  -0.9680   0.0000   0.0000   0.0000   0.3461
   2.600   0.5336   0.00575   0.00145  -0.0518  0.4057  0.7332  -0.9986   0.0000   0.0000   0.0000   0.3415
   2.800   0.5555   0.00578   0.00151  -0.0517  0.3944  0.7564  -1.0299   0.0000   0.0000   0.0000   0.3372
   3.000   0.5780   0.00578   0.00155  -0.0516  0.3891  0.7788  -1.0645   0.0000   0.0000   0.0000   0.3333
   3.200   0.5997   0.00583   0.00161  -0.0515  0.3789  0.8004  -1.0995   0.0000   0.0000   0.0000   0.3296
   3.400   0.6213   0.00588   0.00168  -0.0513  0.3670  0.8233  -1.1373   0.0000   0.0000   0.0000   0.3261
   3.600   0.6431   0.00590   0.00174  -0.0511  0.3597  0.8455  -1.1773   0.0000   0.0000   0.0000   0.3228
   3.800   0.6640   0.00599   0.00184  -0.0508  0.3471  0.8662  -1.2188   0.0000   0.0000   0.0000   0.3196
   4.000   0.6855   0.00604   0.00191  -0.0505  0.3377  0.8846  -1.2639   0.0000   0.0000   0.0000   0.3167
   4.200   0.7066   0.00614   0.00200  -0.0502  0.3266  0.9019  -1.3108   0.0000   0.0000   0.0000   0.3139
   4.400   0.7271   0.00624   0.00209  -0.0497  0.3143  0.9190  -1.3597   0.0000   0.0000   0.0000   0.3110
   4.600   0.7477   0.00633   0.00218  -0.0493  0.3042  0.9332  -1.4124   0.0000   0.0000   0.0000   0.3084
   4.800   0.7680   0.00649   0.00229  -0.0488  0.2900  0.9456  -1.4649   0.0000   0.0000   0.0000   0.3058
   5.000   0.7885   0.00658   0.00238  -0.0484  0.2823  0.9574  -1.5231   0.0000   0.0000   0.0000   0.3033
   5.200   0.8086   0.00678   0.00250  -0.0479  0.2658  0.9667  -1.5829   0.0000   0.0000   0.0000   0.3010
   5.400   0.8303   0.00692   0.00261  -0.0477  0.2565  0.9754  -1.6459   0.0000   0.0000   0.0000   0.2991
   5.600   0.8523   0.00712   0.00273  -0.0477  0.2422  0.9821  -1.7100   0.0000   0.0000   0.0000   0.2973
   5.800   0.8777   0.00728   0.00287  -0.0484  0.2323  0.9871  -1.7888   0.0000   0.0000   0.0000   0.2963
   6.000   0.9010   0.00752   0.00302  -0.0487  0.2168  0.9921  -1.8650   0.0000   0.0000   0.0000   0.2950
   6.200   0.9279   0.00777   0.00318  -0.0499  0.2022  0.9938  -1.9481   0.0000   0.0000   0.0000   0.2945
   6.400   0.9553   0.00795   0.00332  -0.0511  0.1920  0.9948  -2.0333   0.0000   0.0000   0.0000   0.2940
   6.600   0.9808   0.00822   0.00350  -0.0519  0.1772  0.9959  -2.1180   0.0000   0.0000   0.0000   0.2933
   6.800   1.0064   0.00844   0.00366  -0.0528  0.1666  0.9971  -2.2136   0.0000   0.0000   0.0000   0.2925
   7.000   1.0314   0.00871   0.00384  -0.0536  0.1528  0.9983  -2.3093   0.0000   0.0000   0.0000   0.2918
   7.200   1.0559   0.00900   0.00404  -0.0542  0.1396  0.9993  -2.4052   0.0000   0.0000   0.0000   0.2910
   7.400   1.0801   0.00919   0.00421  -0.0548  0.1323  1.0000  -2.5024   0.0000   0.0000   0.0000   0.2901
   7.600   1.0942   0.00943   0.00439  -0.0532  0.1230  1.0000  -2.5791   0.0000   0.0000   0.0000   0.2877
   7.800   1.1103   0.00959   0.00453  -0.0520  0.1169  1.0000  -2.6612   0.0000   0.0000   0.0000   0.2857
   8.000   1.1258   0.00981   0.00470  -0.0506  0.1100  1.0000  -2.7426   0.0000   0.0000   0.0000   0.2836
   8.200   1.1418   0.01003   0.00487  -0.0494  0.1020  1.0000  -2.8257   0.0000   0.0000   0.0000   0.2817
   8.400   1.1584   0.01024   0.00505  -0.0484  0.0963  1.0000  -2.9197   0.0000   0.0000   0.0000   0.2799
   8.600   1.1744   0.01053   0.00527  -0.0472  0.0871  1.0000  -3.0165   0.0000   0.0000   0.0000   0.2781
   8.800   1.1926   0.01072   0.00544  -0.0465  0.0835  1.0000  -3.1203   0.0000   0.0000   0.0000   0.2766
   9.000   1.2098   0.01099   0.00566  -0.0456  0.0781  1.0000  -3.2227   0.0000   0.0000   0.0000   0.2750
   9.200   1.2275   0.01123   0.00587  -0.0449  0.0723  1.0000  -3.3276   0.0000   0.0000   0.0000   0.2736
   9.400   1.2461   0.01142   0.00607  -0.0442  0.0699  1.0000  -3.4367   0.0000   0.0000   0.0000   0.2723
   9.600   1.2636   0.01169   0.00631  -0.0435  0.0660  1.0000  -3.5436   0.0000   0.0000   0.0000   0.2709
   9.800   1.2806   0.01198   0.00656  -0.0426  0.0608  1.0000  -3.6498   0.0000   0.0000   0.0000   0.2695
  10.000   1.2988   0.01219   0.00676  -0.0420  0.0584  1.0000  -3.7612   0.0000   0.0000   0.0000   0.2682
  10.200   1.3167   0.01242   0.00698  -0.0413  0.0564  1.0000  -3.8727   0.0000   0.0000   0.0000   0.2670
  10.400   1.3334   0.01270   0.00724  -0.0404  0.0535  1.0000  -3.9818   0.0000   0.0000   0.0000   0.2656
  10.600   1.3492   0.01301   0.00753  -0.0394  0.0498  1.0000  -4.0892   0.0000   0.0000   0.0000   0.2642
  10.800   1.3655   0.01327   0.00778  -0.0384  0.0470  1.0000  -4.1991   0.0000   0.0000   0.0000   0.2628
  11.000   1.3814   0.01349   0.00801  -0.0374  0.0461  1.0000  -4.3100   0.0000   0.0000   0.0000   0.2614
  11.200   1.3961   0.01376   0.00828  -0.0361  0.0445  1.0000  -4.4178   0.0000   0.0000   0.0000   0.2599
  11.400   1.4097   0.01410   0.00860  -0.0347  0.0422  1.0000  -4.5242   0.0000   0.0000   0.0000   0.2584
  11.600   1.4227   0.01448   0.00896  -0.0333  0.0394  1.0000  -4.6427   0.0000   0.0000   0.0000   0.2568
  11.800   1.4364   0.01483   0.00931  -0.0320  0.0367  1.0000  -4.7639   0.0000   0.0000   0.0000   0.2554
  12.000   1.4517   0.01512   0.00961  -0.0310  0.0361  1.0000  -4.8931   0.0000   0.0000   0.0000   0.2541
  12.200   1.4666   0.01542   0.00992  -0.0300  0.0356  1.0000  -5.0223   0.0000   0.0000   0.0000   0.2529
  12.400   1.4810   0.01576   0.01027  -0.0289  0.0348  1.0000  -5.1509   0.0000   0.0000   0.0000   0.2516
  12.600   1.4948   0.01614   0.01065  -0.0278  0.0338  1.0000  -5.2783   0.0000   0.0000   0.0000   0.2504
  12.800   1.5071   0.01659   0.01109  -0.0265  0.0325  1.0000  -5.4013   0.0000   0.0000   0.0000   0.2490
  13.000   1.5191   0.01707   0.01158  -0.0252  0.0311  1.0000  -5.5235   0.0000   0.0000   0.0000   0.2476
  13.200   1.5307   0.01759   0.01210  -0.0239  0.0293  1.0000  -5.6447   0.0000   0.0000   0.0000   0.2463
  13.400   1.5420   0.01814   0.01266  -0.0226  0.0275  1.0000  -5.7648   0.0000   0.0000   0.0000   0.2450
  13.600   1.5547   0.01862   0.01317  -0.0215  0.0269  1.0000  -5.8924   0.0000   0.0000   0.0000   0.2438
  13.800   1.5674   0.01909   0.01366  -0.0205  0.0267  1.0000  -6.0224   0.0000   0.0000   0.0000   0.2427
  14.000   1.5801   0.01958   0.01417  -0.0196  0.0265  1.0000  -6.1533   0.0000   0.0000   0.0000   0.2416
  14.200   1.5925   0.02011   0.01472  -0.0186  0.0262  1.0000  -6.2841   0.0000   0.0000   0.0000   0.2405
  14.400   1.6037   0.02072   0.01535  -0.0176  0.0258  1.0000  -6.4106   0.0000   0.0000   0.0000   0.2394
  14.600   1.6149   0.02135   0.01600  -0.0166  0.0252  1.0000  -6.5378   0.0000   0.0000   0.0000   0.2383
  14.800   1.6249   0.02207   0.01673  -0.0155  0.0246  1.0000  -6.6612   0.0000   0.0000   0.0000   0.2372
  15.000   1.6338   0.02287   0.01755  -0.0144  0.0240  1.0000  -6.7801   0.0000   0.0000   0.0000   0.2361


