xflr5 v6.61

 Calculated polar for: NACA 2415

 1 1 Reynolds number fixed          Mach number fixed         

 xtrf =   1.000 (top)        1.000 (bottom)
 Mach =   0.000     Re =     2.000 e 6     Ncrit =   9.000

  alpha     CL        CD       CDp       Cm    Top Xtr Bot Xtr   Cpmin    Chinge    XCp    
 ------- -------- --------- --------- -------- ------- ------- -------- --------- ---------
 -10.000  -0.8567   0.01100   0.00596  -0.0575  0.9642  0.0334  -4.7434   0.0000   0.0000   0.0000   0.1691
  -9.800  -0.8366   0.01080   0.00576  -0.0571  0.9601  0.0343  -4.6075   0.0000   0.0000   0.0000   0.1682
  -9.600  -0.8164   0.01062   0.00558  -0.0567  0.9552  0.0351  -4.4724   0.0000   0.0000   0.0000   0.1672
  -9.400  -0.7957   0.01046   0.00540  -0.0563  0.9498  0.0357  -4.3373   0.0000   0.0000   0.0000   0.1660
  -9.200  -0.7747   0.01032   0.00523  -0.0560  0.9441  0.0361  -4.2022   0.0000   0.0000   0.0000   0.1647
  -9.000  -0.7534   0.01018   0.00507  -0.0558  0.9390  0.0363  -4.0672   0.0000   0.0000   0.0000   0.1631
  -8.800  -0.7329   0.00996   0.00482  -0.0554  0.9326  0.0384  -3.9407   0.0000   0.0000   0.0000   0.1617
  -8.600  -0.7124   0.00975   0.00460  -0.0550  0.9261  0.0413  -3.8144   0.0000   0.0000   0.0000   0.1602
  -8.400  -0.6912   0.00956   0.00442  -0.0548  0.9211  0.0433  -3.6860   0.0000   0.0000   0.0000   0.1582
  -8.200  -0.6695   0.00939   0.00426  -0.0547  0.9161  0.0450  -3.5578   0.0000   0.0000   0.0000   0.1560
  -8.000  -0.6478   0.00925   0.00412  -0.0545  0.9102  0.0462  -3.4307   0.0000   0.0000   0.0000   0.1536
  -7.800  -0.6261   0.00915   0.00398  -0.0544  0.9035  0.0469  -3.3051   0.0000   0.0000   0.0000   0.1511
  -7.600  -0.6041   0.00901   0.00382  -0.0543  0.8979  0.0486  -3.1815   0.0000   0.0000   0.0000   0.1482
  -7.400  -0.5826   0.00882   0.00365  -0.0541  0.8914  0.0530  -3.0614   0.0000   0.0000   0.0000   0.1453
  -7.200  -0.5611   0.00866   0.00349  -0.0539  0.8834  0.0562  -2.9428   0.0000   0.0000   0.0000   0.1422
  -7.000  -0.5392   0.00856   0.00336  -0.0537  0.8756  0.0582  -2.8285   0.0000   0.0000   0.0000   0.1386
  -6.800  -0.5167   0.00846   0.00325  -0.0537  0.8699  0.0592  -2.7243   0.0000   0.0000   0.0000   0.1343
  -6.600  -0.4948   0.00831   0.00310  -0.0536  0.8624  0.0641  -2.6243   0.0000   0.0000   0.0000   0.1300
  -6.400  -0.4732   0.00817   0.00296  -0.0534  0.8536  0.0682  -2.5254   0.0000   0.0000   0.0000   0.1255
  -6.200  -0.4508   0.00806   0.00285  -0.0534  0.8471  0.0712  -2.4257   0.0000   0.0000   0.0000   0.1199
  -6.000  -0.4283   0.00798   0.00275  -0.0534  0.8388  0.0732  -2.3271   0.0000   0.0000   0.0000   0.1138
  -5.800  -0.4067   0.00786   0.00262  -0.0532  0.8282  0.0796  -2.2324   0.0000   0.0000   0.0000   0.1076
  -5.600  -0.3845   0.00774   0.00251  -0.0531  0.8203  0.0842  -2.1371   0.0000   0.0000   0.0000   0.1001
  -5.400  -0.3619   0.00766   0.00241  -0.0531  0.8117  0.0870  -2.0429   0.0000   0.0000   0.0000   0.0915
  -5.200  -0.3402   0.00755   0.00230  -0.0529  0.8011  0.0956  -1.9517   0.0000   0.0000   0.0000   0.0825
  -5.000  -0.3178   0.00744   0.00221  -0.0529  0.7929  0.1013  -1.8600   0.0000   0.0000   0.0000   0.0714
  -4.800  -0.2953   0.00737   0.00212  -0.0528  0.7828  0.1071  -1.7697   0.0000   0.0000   0.0000   0.0588
  -4.600  -0.2736   0.00728   0.00203  -0.0527  0.7698  0.1148  -1.6887   0.0000   0.0000   0.0000   0.0449
  -4.400  -0.2508   0.00721   0.00196  -0.0527  0.7623  0.1195  -1.6114   0.0000   0.0000   0.0000   0.0269
  -4.200  -0.2286   0.00711   0.00188  -0.0526  0.7518  0.1293  -1.5367   0.0000   0.0000   0.0000   0.0065
  -4.000  -0.2064   0.00706   0.00181  -0.0525  0.7401  0.1363  -1.4627   0.0000   0.0000   0.0000  -0.0184
  -3.800  -0.1840   0.00696   0.00173  -0.0525  0.7307  0.1475  -1.3896   0.0000   0.0000   0.0000  -0.0500
  -3.600  -0.1619   0.00692   0.00166  -0.0524  0.7174  0.1560  -1.3181   0.0000   0.0000   0.0000  -0.0892
  -3.400  -0.1395   0.00683   0.00160  -0.0524  0.7080  0.1677  -1.2470   0.0000   0.0000   0.0000  -0.1423
  -3.200  -0.1169   0.00678   0.00155  -0.0524  0.6975  0.1758  -1.1791   0.0000   0.0000   0.0000  -0.2166
  -3.000  -0.0949   0.00673   0.00150  -0.0523  0.6835  0.1880  -1.1193   0.0000   0.0000   0.0000  -0.3214
  -2.600  -0.0501   0.00661   0.00141  -0.0522  0.6620  0.2143  -1.0008   0.0000   0.0000   0.0000  -0.8242
  -2.400  -0.0275   0.00657   0.00137  -0.0522  0.6513  0.2255  -0.9424   0.0000   0.0000   0.0000  -1.6995
  -2.200  -0.0050   0.00651   0.00134  -0.0522  0.6411  0.2384  -0.8863   0.0000   0.0000   0.0000  -10.4714
  -2.000   0.0170   0.00649   0.00131  -0.0521  0.6266  0.2533  -0.8370   0.0000   0.0000   0.0000   3.3762
  -1.800   0.0398   0.00644   0.00128  -0.0521  0.6180  0.2667  -0.7873   0.0000   0.0000   0.0000   1.5837
  -1.600   0.0621   0.00639   0.00125  -0.0521  0.6071  0.2838  -0.7389   0.0000   0.0000   0.0000   1.1018
  -1.400   0.0845   0.00638   0.00123  -0.0521  0.5943  0.2976  -0.6922   0.0000   0.0000   0.0000   0.8739
  -1.200   0.1072   0.00633   0.00122  -0.0521  0.5857  0.3146  -0.6500   0.0000   0.0000   0.0000   0.7407
  -1.000   0.1292   0.00630   0.00120  -0.0520  0.5736  0.3343  -0.6088   0.0000   0.0000   0.0000   0.6550
  -0.800   0.1518   0.00627   0.00119  -0.0520  0.5635  0.3503  -0.6037   0.0000   0.0000   0.0000   0.5937
  -0.600   0.1745   0.00623   0.00119  -0.0520  0.5549  0.3694  -0.6224   0.0000   0.0000   0.0000   0.5483
  -0.400   0.1964   0.00621   0.00118  -0.0519  0.5428  0.3926  -0.6409   0.0000   0.0000   0.0000   0.5137
  -0.200   0.2189   0.00615   0.00118  -0.0519  0.5339  0.4169  -0.6596   0.0000   0.0000   0.0000   0.4859
   0.000   0.2412   0.00608   0.00118  -0.0519  0.5262  0.4476  -0.6792   0.0000   0.0000   0.0000   0.4632
   0.200   0.2632   0.00605   0.00119  -0.0518  0.5153  0.4771  -0.6992   0.0000   0.0000   0.0000   0.4445
   0.400   0.2855   0.00601   0.00121  -0.0518  0.5059  0.5052  -0.7195   0.0000   0.0000   0.0000   0.4285
   0.600   0.3080   0.00595   0.00122  -0.0518  0.4996  0.5344  -0.7407   0.0000   0.0000   0.0000   0.4149
   0.800   0.3301   0.00593   0.00124  -0.0517  0.4906  0.5606  -0.7626   0.0000   0.0000   0.0000   0.4031
   1.000   0.3521   0.00593   0.00127  -0.0516  0.4790  0.5863  -0.7845   0.0000   0.0000   0.0000   0.3927
   1.200   0.3748   0.00588   0.00129  -0.0516  0.4746  0.6118  -0.8080   0.0000   0.0000   0.0000   0.3837
   1.400   0.3973   0.00587   0.00132  -0.0516  0.4674  0.6343  -0.8322   0.0000   0.0000   0.0000   0.3756
   1.600   0.4194   0.00589   0.00135  -0.0515  0.4581  0.6578  -0.8562   0.0000   0.0000   0.0000   0.3683
   1.800   0.4416   0.00588   0.00139  -0.0515  0.4495  0.6819  -0.8824   0.0000   0.0000   0.0000   0.3617
   2.000   0.4641   0.00585   0.00143  -0.0514  0.4446  0.7064  -0.9089   0.0000   0.0000   0.0000   0.3558
   2.200   0.4862   0.00585   0.00147  -0.0513  0.4372  0.7308  -0.9369   0.0000   0.0000   0.0000   0.3503
   2.400   0.5080   0.00588   0.00152  -0.0512  0.4272  0.7533  -0.9653   0.0000   0.0000   0.0000   0.3453
   2.600   0.5302   0.00588   0.00157  -0.0511  0.4205  0.7763  -0.9960   0.0000   0.0000   0.0000   0.3407
   2.800   0.5525   0.00588   0.00162  -0.0510  0.4145  0.7988  -1.0277   0.0000   0.0000   0.0000   0.3364
   3.000   0.5740   0.00592   0.00168  -0.0507  0.4050  0.8221  -1.0612   0.0000   0.0000   0.0000   0.3324
   3.200   0.5954   0.00596   0.00175  -0.0505  0.3943  0.8447  -1.0956   0.0000   0.0000   0.0000   0.3285
   3.400   0.6172   0.00597   0.00181  -0.0503  0.3881  0.8649  -1.1337   0.0000   0.0000   0.0000   0.3250
   3.600   0.6383   0.00605   0.00188  -0.0499  0.3777  0.8838  -1.1726   0.0000   0.0000   0.0000   0.3216
   3.800   0.6595   0.00613   0.00196  -0.0496  0.3663  0.9012  -1.2144   0.0000   0.0000   0.0000   0.3184
   4.000   0.6805   0.00618   0.00205  -0.0492  0.3583  0.9185  -1.2585   0.0000   0.0000   0.0000   0.3153
   4.200   0.7006   0.00632   0.00214  -0.0487  0.3448  0.9326  -1.3043   0.0000   0.0000   0.0000   0.3123
   4.400   0.7218   0.00640   0.00222  -0.0483  0.3362  0.9452  -1.3533   0.0000   0.0000   0.0000   0.3095
   4.600   0.7421   0.00653   0.00232  -0.0478  0.3249  0.9568  -1.4055   0.0000   0.0000   0.0000   0.3068
   4.800   0.7631   0.00667   0.00241  -0.0475  0.3125  0.9659  -1.4591   0.0000   0.0000   0.0000   0.3044
   5.000   0.7856   0.00682   0.00252  -0.0475  0.3014  0.9738  -1.5190   0.0000   0.0000   0.0000   0.3025
   5.200   0.8074   0.00699   0.00263  -0.0474  0.2886  0.9810  -1.5813   0.0000   0.0000   0.0000   0.3005
   5.400   0.8335   0.00718   0.00275  -0.0483  0.2750  0.9854  -1.6505   0.0000   0.0000   0.0000   0.2995
   5.600   0.8590   0.00737   0.00289  -0.0490  0.2621  0.9899  -1.7208   0.0000   0.0000   0.0000   0.2985
   5.800   0.8851   0.00759   0.00304  -0.0499  0.2493  0.9931  -1.8007   0.0000   0.0000   0.0000   0.2976
   6.000   0.9137   0.00780   0.00318  -0.0514  0.2354  0.9941  -1.8860   0.0000   0.0000   0.0000   0.2973
   6.200   0.9402   0.00807   0.00335  -0.0525  0.2181  0.9953  -1.9686   0.0000   0.0000   0.0000   0.2966
   6.400   0.9664   0.00828   0.00350  -0.0535  0.2064  0.9965  -2.0520   0.0000   0.0000   0.0000   0.2959
   6.600   0.9924   0.00851   0.00366  -0.0544  0.1941  0.9978  -2.1402   0.0000   0.0000   0.0000   0.2952
   6.800   1.0178   0.00878   0.00385  -0.0553  0.1802  0.9990  -2.2354   0.0000   0.0000   0.0000   0.2944
   7.000   1.0433   0.00902   0.00402  -0.0561  0.1678  0.9999  -2.3326   0.0000   0.0000   0.0000   0.2937
   7.200   1.0583   0.00927   0.00420  -0.0547  0.1551  1.0000  -2.4093   0.0000   0.0000   0.0000   0.2914
   7.400   1.0734   0.00947   0.00436  -0.0533  0.1468  1.0000  -2.4877   0.0000   0.0000   0.0000   0.2891
   7.600   1.0883   0.00970   0.00453  -0.0519  0.1367  1.0000  -2.5660   0.0000   0.0000   0.0000   0.2868
   7.800   1.1045   0.00989   0.00469  -0.0507  0.1300  1.0000  -2.6479   0.0000   0.0000   0.0000   0.2848
   8.000   1.1195   0.01016   0.00489  -0.0494  0.1198  1.0000  -2.7280   0.0000   0.0000   0.0000   0.2827
   8.200   1.1366   0.01034   0.00505  -0.0484  0.1148  1.0000  -2.8136   0.0000   0.0000   0.0000   0.2809
   8.400   1.1525   0.01062   0.00527  -0.0472  0.1064  1.0000  -2.9034   0.0000   0.0000   0.0000   0.2791
   8.600   1.1701   0.01083   0.00545  -0.0464  0.1000  1.0000  -3.0042   0.0000   0.0000   0.0000   0.2775
   8.800   1.1866   0.01113   0.00569  -0.0454  0.0924  1.0000  -3.1034   0.0000   0.0000   0.0000   0.2758
   9.000   1.2041   0.01138   0.00591  -0.0446  0.0857  1.0000  -3.2061   0.0000   0.0000   0.0000   0.2743
   9.200   1.2219   0.01162   0.00612  -0.0438  0.0814  1.0000  -3.3110   0.0000   0.0000   0.0000   0.2729
   9.400   1.2385   0.01193   0.00639  -0.0429  0.0753  1.0000  -3.4143   0.0000   0.0000   0.0000   0.2714
   9.600   1.2564   0.01216   0.00661  -0.0422  0.0715  1.0000  -3.5220   0.0000   0.0000   0.0000   0.2700
   9.800   1.2741   0.01240   0.00684  -0.0414  0.0684  1.0000  -3.6302   0.0000   0.0000   0.0000   0.2687
  10.000   1.2904   0.01271   0.00711  -0.0405  0.0642  1.0000  -3.7356   0.0000   0.0000   0.0000   0.2673
  10.200   1.3067   0.01301   0.00739  -0.0395  0.0592  1.0000  -3.8417   0.0000   0.0000   0.0000   0.2659
  10.400   1.3242   0.01323   0.00761  -0.0388  0.0578  1.0000  -3.9528   0.0000   0.0000   0.0000   0.2646
  10.600   1.3402   0.01350   0.00787  -0.0378  0.0555  1.0000  -4.0609   0.0000   0.0000   0.0000   0.2632
  10.800   1.3540   0.01382   0.00817  -0.0364  0.0526  1.0000  -4.1635   0.0000   0.0000   0.0000   0.2616
  11.000   1.3671   0.01417   0.00850  -0.0349  0.0490  1.0000  -4.2645   0.0000   0.0000   0.0000   0.2599
  11.200   1.3820   0.01446   0.00879  -0.0337  0.0469  1.0000  -4.3718   0.0000   0.0000   0.0000   0.2585
  11.400   1.3972   0.01473   0.00909  -0.0326  0.0459  1.0000  -4.4816   0.0000   0.0000   0.0000   0.2571
  11.600   1.4115   0.01506   0.00941  -0.0315  0.0442  1.0000  -4.6007   0.0000   0.0000   0.0000   0.2557
  11.800   1.4246   0.01546   0.00979  -0.0301  0.0420  1.0000  -4.7202   0.0000   0.0000   0.0000   0.2543
  12.000   1.4369   0.01591   0.01023  -0.0287  0.0393  1.0000  -4.8373   0.0000   0.0000   0.0000   0.2528
  12.200   1.4497   0.01635   0.01067  -0.0274  0.0366  1.0000  -4.9564   0.0000   0.0000   0.0000   0.2514
  12.400   1.4640   0.01669   0.01104  -0.0264  0.0361  1.0000  -5.0838   0.0000   0.0000   0.0000   0.2501
  12.600   1.4781   0.01706   0.01142  -0.0254  0.0357  1.0000  -5.2115   0.0000   0.0000   0.0000   0.2489
  12.800   1.4918   0.01746   0.01184  -0.0243  0.0349  1.0000  -5.3391   0.0000   0.0000   0.0000   0.2477
  13.000   1.5045   0.01793   0.01231  -0.0232  0.0340  1.0000  -5.4636   0.0000   0.0000   0.0000   0.2465
  13.200   1.5165   0.01845   0.01283  -0.0220  0.0328  1.0000  -5.5865   0.0000   0.0000   0.0000   0.2452
  13.400   1.5274   0.01903   0.01343  -0.0208  0.0316  1.0000  -5.7056   0.0000   0.0000   0.0000   0.2439
  13.600   1.5373   0.01968   0.01408  -0.0194  0.0300  1.0000  -5.8212   0.0000   0.0000   0.0000   0.2426
  13.800   1.5472   0.02036   0.01478  -0.0182  0.0283  1.0000  -5.9365   0.0000   0.0000   0.0000   0.2413
  14.000   1.5562   0.02112   0.01557  -0.0169  0.0269  1.0000  -6.0482   0.0000   0.0000   0.0000   0.2400
  14.200   1.5685   0.02169   0.01616  -0.0160  0.0268  1.0000  -6.1777   0.0000   0.0000   0.0000   0.2390
  14.400   1.5802   0.02231   0.01681  -0.0151  0.0266  1.0000  -6.3052   0.0000   0.0000   0.0000   0.2380
  14.600   1.5910   0.02299   0.01752  -0.0142  0.0264  1.0000  -6.4298   0.0000   0.0000   0.0000   0.2369
  14.800   1.6017   0.02369   0.01824  -0.0133  0.0261  1.0000  -6.5548   0.0000   0.0000   0.0000   0.2359
  15.000   1.6109   0.02451   0.01909  -0.0123  0.0257  1.0000  -6.6740   0.0000   0.0000   0.0000   0.2349


