xflr5 v6.61

 Calculated polar for: NACA 2415

 1 1 Reynolds number fixed          Mach number fixed         

 xtrf =   1.000 (top)        1.000 (bottom)
 Mach =   0.000     Re =     3.000 e 6     Ncrit =   9.000

  alpha     CL        CD       CDp       Cm    Top Xtr Bot Xtr   Cpmin    Chinge    XCp    
 ------- -------- --------- --------- -------- ------- ------- -------- --------- ---------
 -10.000  -0.8704   0.01013   0.00529  -0.0547  0.9432  0.0283  -4.7980   0.0000   0.0000   0.0000   0.1735
  -9.800  -0.8496   0.00991   0.00507  -0.0544  0.9382  0.0301  -4.6619   0.0000   0.0000   0.0000   0.1725
  -9.600  -0.8290   0.00970   0.00486  -0.0541  0.9313  0.0318  -4.5264   0.0000   0.0000   0.0000   0.1715
  -9.400  -0.8084   0.00953   0.00467  -0.0537  0.9234  0.0332  -4.3910   0.0000   0.0000   0.0000   0.1705
  -9.200  -0.7868   0.00935   0.00450  -0.0536  0.9191  0.0344  -4.2538   0.0000   0.0000   0.0000   0.1690
  -9.000  -0.7650   0.00920   0.00435  -0.0535  0.9134  0.0353  -4.1174   0.0000   0.0000   0.0000   0.1673
  -8.800  -0.7433   0.00908   0.00420  -0.0533  0.9071  0.0359  -3.9824   0.0000   0.0000   0.0000   0.1657
  -8.600  -0.7215   0.00898   0.00407  -0.0532  0.9003  0.0362  -3.8487   0.0000   0.0000   0.0000   0.1638
  -8.400  -0.6991   0.00886   0.00394  -0.0532  0.8962  0.0367  -3.7156   0.0000   0.0000   0.0000   0.1616
  -8.200  -0.6774   0.00869   0.00376  -0.0531  0.8897  0.0395  -3.5881   0.0000   0.0000   0.0000   0.1595
  -8.000  -0.6560   0.00853   0.00360  -0.0529  0.8812  0.0422  -3.4623   0.0000   0.0000   0.0000   0.1574
  -7.800  -0.6342   0.00839   0.00345  -0.0527  0.8742  0.0443  -3.3362   0.0000   0.0000   0.0000   0.1549
  -7.600  -0.6119   0.00826   0.00333  -0.0527  0.8677  0.0458  -3.2105   0.0000   0.0000   0.0000   0.1520
  -7.400  -0.5897   0.00817   0.00321  -0.0526  0.8596  0.0468  -3.0864   0.0000   0.0000   0.0000   0.1490
  -7.200  -0.5675   0.00809   0.00311  -0.0525  0.8508  0.0474  -2.9644   0.0000   0.0000   0.0000   0.1457
  -7.000  -0.5452   0.00794   0.00296  -0.0525  0.8457  0.0521  -2.8479   0.0000   0.0000   0.0000   0.1421
  -6.800  -0.5232   0.00780   0.00283  -0.0524  0.8376  0.0558  -2.7449   0.0000   0.0000   0.0000   0.1382
  -6.600  -0.5012   0.00771   0.00272  -0.0523  0.8265  0.0580  -2.6430   0.0000   0.0000   0.0000   0.1341
  -6.400  -0.4785   0.00763   0.00263  -0.0523  0.8197  0.0591  -2.5405   0.0000   0.0000   0.0000   0.1291
  -6.200  -0.4561   0.00754   0.00252  -0.0523  0.8102  0.0631  -2.4410   0.0000   0.0000   0.0000   0.1239
  -6.000  -0.4343   0.00743   0.00241  -0.0521  0.7982  0.0677  -2.3438   0.0000   0.0000   0.0000   0.1184
  -5.800  -0.4116   0.00733   0.00231  -0.0522  0.7922  0.0709  -2.2457   0.0000   0.0000   0.0000   0.1117
  -5.600  -0.3889   0.00727   0.00223  -0.0522  0.7826  0.0725  -2.1490   0.0000   0.0000   0.0000   0.1043
  -5.400  -0.3669   0.00719   0.00213  -0.0521  0.7696  0.0786  -2.0560   0.0000   0.0000   0.0000   0.0964
  -5.200  -0.3443   0.00708   0.00204  -0.0521  0.7620  0.0837  -1.9624   0.0000   0.0000   0.0000   0.0870
  -5.000  -0.3218   0.00703   0.00196  -0.0520  0.7504  0.0868  -1.8702   0.0000   0.0000   0.0000   0.0764
  -4.800  -0.2995   0.00694   0.00188  -0.0520  0.7397  0.0951  -1.7801   0.0000   0.0000   0.0000   0.0643
  -4.600  -0.2769   0.00685   0.00180  -0.0520  0.7313  0.1009  -1.6957   0.0000   0.0000   0.0000   0.0498
  -4.400  -0.2545   0.00682   0.00174  -0.0520  0.7179  0.1051  -1.6190   0.0000   0.0000   0.0000   0.0331
  -4.200  -0.2320   0.00673   0.00167  -0.0519  0.7081  0.1137  -1.5435   0.0000   0.0000   0.0000   0.0130
  -4.000  -0.2093   0.00668   0.00161  -0.0520  0.6973  0.1188  -1.4685   0.0000   0.0000   0.0000  -0.0118
  -3.800  -0.1869   0.00664   0.00155  -0.0519  0.6835  0.1271  -1.3953   0.0000   0.0000   0.0000  -0.0419
  -3.600  -0.1642   0.00655   0.00148  -0.0519  0.6761  0.1355  -1.3227   0.0000   0.0000   0.0000  -0.0815
  -3.400  -0.1418   0.00651   0.00143  -0.0519  0.6632  0.1459  -1.2515   0.0000   0.0000   0.0000  -0.1322
  -3.200  -0.1193   0.00645   0.00138  -0.0519  0.6515  0.1547  -1.1829   0.0000   0.0000   0.0000  -0.2031
  -3.000  -0.0964   0.00640   0.00134  -0.0519  0.6422  0.1640  -1.1218   0.0000   0.0000   0.0000  -0.3090
  -2.800  -0.0741   0.00637   0.00130  -0.0519  0.6283  0.1736  -1.0622   0.0000   0.0000   0.0000  -0.4743
  -2.600  -0.0512   0.00632   0.00126  -0.0520  0.6196  0.1838  -1.0025   0.0000   0.0000   0.0000  -0.7966
  -2.400  -0.0288   0.00627   0.00122  -0.0519  0.6081  0.1962  -0.9443   0.0000   0.0000   0.0000  -1.6077
  -2.200  -0.0063   0.00624   0.00119  -0.0519  0.5947  0.2098  -0.8879   0.0000   0.0000   0.0000  -8.1730
  -2.000   0.0167   0.00620   0.00116  -0.0520  0.5877  0.2187  -0.8374   0.0000   0.0000   0.0000   3.4282
  -1.800   0.0391   0.00617   0.00114  -0.0520  0.5757  0.2330  -0.7882   0.0000   0.0000   0.0000   1.6038
  -1.600   0.0619   0.00615   0.00112  -0.0520  0.5641  0.2456  -0.7392   0.0000   0.0000   0.0000   1.1041
  -1.400   0.0846   0.00608   0.00110  -0.0521  0.5563  0.2619  -0.6921   0.0000   0.0000   0.0000   0.8733
  -1.200   0.1072   0.00609   0.00109  -0.0521  0.5448  0.2739  -0.6499   0.0000   0.0000   0.0000   0.7404
  -1.000   0.1299   0.00605   0.00107  -0.0521  0.5346  0.2887  -0.6081   0.0000   0.0000   0.0000   0.6537
  -0.800   0.1526   0.00600   0.00106  -0.0521  0.5271  0.3076  -0.6041   0.0000   0.0000   0.0000   0.5928
  -0.600   0.1753   0.00601   0.00106  -0.0522  0.5166  0.3202  -0.6228   0.0000   0.0000   0.0000   0.5477
  -0.400   0.1979   0.00598   0.00106  -0.0522  0.5065  0.3382  -0.6416   0.0000   0.0000   0.0000   0.5129
  -0.200   0.2207   0.00592   0.00105  -0.0522  0.5003  0.3590  -0.6606   0.0000   0.0000   0.0000   0.4853
   0.000   0.2434   0.00592   0.00106  -0.0523  0.4914  0.3757  -0.6804   0.0000   0.0000   0.0000   0.4628
   0.200   0.2658   0.00591   0.00107  -0.0523  0.4797  0.3949  -0.7007   0.0000   0.0000   0.0000   0.4442
   0.400   0.2885   0.00584   0.00107  -0.0523  0.4752  0.4224  -0.7213   0.0000   0.0000   0.0000   0.4285
   0.600   0.3111   0.00579   0.00108  -0.0523  0.4685  0.4499  -0.7425   0.0000   0.0000   0.0000   0.4150
   0.800   0.3333   0.00576   0.00109  -0.0523  0.4595  0.4788  -0.7645   0.0000   0.0000   0.0000   0.4034
   1.000   0.3558   0.00573   0.00111  -0.0523  0.4499  0.5073  -0.7867   0.0000   0.0000   0.0000   0.3932
   1.200   0.3786   0.00568   0.00113  -0.0524  0.4459  0.5333  -0.8104   0.0000   0.0000   0.0000   0.3842
   1.400   0.4011   0.00565   0.00115  -0.0524  0.4393  0.5598  -0.8346   0.0000   0.0000   0.0000   0.3762
   1.600   0.4234   0.00566   0.00119  -0.0523  0.4299  0.5838  -0.8589   0.0000   0.0000   0.0000   0.3690
   1.800   0.4461   0.00566   0.00122  -0.0524  0.4217  0.6052  -0.8854   0.0000   0.0000   0.0000   0.3626
   2.000   0.4689   0.00564   0.00125  -0.0524  0.4175  0.6276  -0.9121   0.0000   0.0000   0.0000   0.3567
   2.200   0.4913   0.00564   0.00129  -0.0524  0.4095  0.6510  -0.9405   0.0000   0.0000   0.0000   0.3514
   2.400   0.5133   0.00567   0.00133  -0.0523  0.3979  0.6748  -0.9691   0.0000   0.0000   0.0000   0.3464
   2.600   0.5359   0.00566   0.00137  -0.0523  0.3919  0.6977  -1.0004   0.0000   0.0000   0.0000   0.3420
   2.800   0.5584   0.00568   0.00142  -0.0523  0.3841  0.7184  -1.0321   0.0000   0.0000   0.0000   0.3378
   3.000   0.5801   0.00575   0.00148  -0.0521  0.3708  0.7410  -1.0662   0.0000   0.0000   0.0000   0.3339
   3.200   0.6024   0.00574   0.00153  -0.0521  0.3640  0.7652  -1.1019   0.0000   0.0000   0.0000   0.3303
   3.400   0.6241   0.00579   0.00159  -0.0519  0.3537  0.7881  -1.1398   0.0000   0.0000   0.0000   0.3268
   3.600   0.6456   0.00585   0.00167  -0.0517  0.3407  0.8105  -1.1797   0.0000   0.0000   0.0000   0.3235
   3.800   0.6677   0.00589   0.00174  -0.0516  0.3332  0.8311  -1.2224   0.0000   0.0000   0.0000   0.3205
   4.000   0.6886   0.00600   0.00183  -0.0513  0.3182  0.8515  -1.2672   0.0000   0.0000   0.0000   0.3176
   4.200   0.7103   0.00603   0.00190  -0.0511  0.3109  0.8727  -1.3148   0.0000   0.0000   0.0000   0.3148
   4.400   0.7308   0.00615   0.00200  -0.0507  0.2973  0.8919  -1.3641   0.0000   0.0000   0.0000   0.3120
   4.600   0.7520   0.00623   0.00209  -0.0504  0.2868  0.9083  -1.4175   0.0000   0.0000   0.0000   0.3095
   4.800   0.7728   0.00636   0.00219  -0.0501  0.2761  0.9233  -1.4709   0.0000   0.0000   0.0000   0.3070
   5.000   0.7928   0.00648   0.00229  -0.0495  0.2631  0.9385  -1.5289   0.0000   0.0000   0.0000   0.3045
   5.200   0.8127   0.00664   0.00241  -0.0490  0.2501  0.9501  -1.5887   0.0000   0.0000   0.0000   0.3021
   5.400   0.8331   0.00677   0.00251  -0.0485  0.2399  0.9615  -1.6498   0.0000   0.0000   0.0000   0.2998
   5.600   0.8536   0.00693   0.00263  -0.0481  0.2290  0.9707  -1.7122   0.0000   0.0000   0.0000   0.2978
   5.800   0.8737   0.00711   0.00277  -0.0476  0.2159  0.9796  -1.7823   0.0000   0.0000   0.0000   0.2957
   6.000   0.8974   0.00736   0.00292  -0.0480  0.1994  0.9851  -1.8589   0.0000   0.0000   0.0000   0.2945
   6.200   0.9212   0.00751   0.00304  -0.0484  0.1914  0.9907  -1.9371   0.0000   0.0000   0.0000   0.2933
   6.400   0.9459   0.00776   0.00321  -0.0490  0.1770  0.9937  -2.0173   0.0000   0.0000   0.0000   0.2924
   6.600   0.9730   0.00795   0.00335  -0.0502  0.1678  0.9947  -2.1034   0.0000   0.0000   0.0000   0.2919
   6.800   0.9983   0.00821   0.00353  -0.0510  0.1537  0.9957  -2.1981   0.0000   0.0000   0.0000   0.2912
   7.000   1.0229   0.00850   0.00372  -0.0517  0.1397  0.9969  -2.2925   0.0000   0.0000   0.0000   0.2904
   7.200   1.0483   0.00868   0.00387  -0.0525  0.1325  0.9980  -2.3905   0.0000   0.0000   0.0000   0.2897
   7.400   1.0726   0.00896   0.00408  -0.0531  0.1207  0.9990  -2.4873   0.0000   0.0000   0.0000   0.2889
   7.600   1.0978   0.00915   0.00424  -0.0539  0.1149  0.9998  -2.5873   0.0000   0.0000   0.0000   0.2882
   7.800   1.1149   0.00940   0.00442  -0.0529  0.1063  1.0000  -2.6712   0.0000   0.0000   0.0000   0.2864
   8.000   1.1310   0.00956   0.00456  -0.0517  0.1007  1.0000  -2.7544   0.0000   0.0000   0.0000   0.2844
   8.200   1.1464   0.00979   0.00474  -0.0504  0.0939  1.0000  -2.8364   0.0000   0.0000   0.0000   0.2823
   8.400   1.1624   0.01001   0.00492  -0.0492  0.0863  1.0000  -2.9305   0.0000   0.0000   0.0000   0.2804
   8.600   1.1796   0.01021   0.00509  -0.0482  0.0820  1.0000  -3.0309   0.0000   0.0000   0.0000   0.2787
   8.800   1.1963   0.01047   0.00529  -0.0472  0.0759  1.0000  -3.1310   0.0000   0.0000   0.0000   0.2771
   9.000   1.2147   0.01066   0.00546  -0.0465  0.0717  1.0000  -3.2368   0.0000   0.0000   0.0000   0.2756
   9.200   1.2332   0.01085   0.00565  -0.0459  0.0688  1.0000  -3.3441   0.0000   0.0000   0.0000   0.2743
   9.400   1.2507   0.01112   0.00588  -0.0451  0.0645  1.0000  -3.4503   0.0000   0.0000   0.0000   0.2728
   9.600   1.2685   0.01136   0.00610  -0.0444  0.0593  1.0000  -3.5581   0.0000   0.0000   0.0000   0.2715
   9.800   1.2874   0.01155   0.00628  -0.0438  0.0579  1.0000  -3.6703   0.0000   0.0000   0.0000   0.2702
  10.000   1.3055   0.01178   0.00649  -0.0431  0.0555  1.0000  -3.7815   0.0000   0.0000   0.0000   0.2690
  10.200   1.3225   0.01206   0.00674  -0.0423  0.0523  1.0000  -3.8908   0.0000   0.0000   0.0000   0.2676
  10.400   1.3396   0.01234   0.00699  -0.0415  0.0483  1.0000  -4.0010   0.0000   0.0000   0.0000   0.2663
  10.600   1.3575   0.01255   0.00720  -0.0408  0.0468  1.0000  -4.1153   0.0000   0.0000   0.0000   0.2651
  10.800   1.3750   0.01277   0.00743  -0.0400  0.0455  1.0000  -4.2296   0.0000   0.0000   0.0000   0.2638
  11.000   1.3910   0.01305   0.00769  -0.0391  0.0433  1.0000  -4.3408   0.0000   0.0000   0.0000   0.2625
  11.200   1.4048   0.01337   0.00799  -0.0377  0.0407  1.0000  -4.4458   0.0000   0.0000   0.0000   0.2609
  11.400   1.4185   0.01369   0.00829  -0.0362  0.0377  1.0000  -4.5558   0.0000   0.0000   0.0000   0.2593
  11.600   1.4336   0.01395   0.00856  -0.0351  0.0363  1.0000  -4.6821   0.0000   0.0000   0.0000   0.2579
  11.800   1.4492   0.01420   0.00882  -0.0341  0.0359  1.0000  -4.8120   0.0000   0.0000   0.0000   0.2566
  12.000   1.4643   0.01448   0.00911  -0.0330  0.0352  1.0000  -4.9410   0.0000   0.0000   0.0000   0.2553
  12.200   1.4787   0.01480   0.00942  -0.0319  0.0341  1.0000  -5.0692   0.0000   0.0000   0.0000   0.2540
  12.400   1.4923   0.01517   0.00979  -0.0306  0.0329  1.0000  -5.1951   0.0000   0.0000   0.0000   0.2526
  12.600   1.5051   0.01558   0.01019  -0.0293  0.0314  1.0000  -5.3191   0.0000   0.0000   0.0000   0.2513
  12.800   1.5178   0.01601   0.01062  -0.0281  0.0295  1.0000  -5.4436   0.0000   0.0000   0.0000   0.2499
  13.000   1.5301   0.01645   0.01106  -0.0267  0.0278  1.0000  -5.5671   0.0000   0.0000   0.0000   0.2485
  13.200   1.5435   0.01686   0.01149  -0.0256  0.0269  1.0000  -5.6957   0.0000   0.0000   0.0000   0.2473
  13.400   1.5577   0.01724   0.01188  -0.0247  0.0268  1.0000  -5.8300   0.0000   0.0000   0.0000   0.2462
  13.600   1.5712   0.01765   0.01232  -0.0237  0.0266  1.0000  -5.9627   0.0000   0.0000   0.0000   0.2450
  13.800   1.5846   0.01808   0.01276  -0.0227  0.0262  1.0000  -6.0961   0.0000   0.0000   0.0000   0.2439
  14.000   1.5971   0.01856   0.01325  -0.0216  0.0258  1.0000  -6.2270   0.0000   0.0000   0.0000   0.2428
  14.200   1.6085   0.01911   0.01381  -0.0205  0.0252  1.0000  -6.3543   0.0000   0.0000   0.0000   0.2416
  14.400   1.6198   0.01969   0.01441  -0.0194  0.0245  1.0000  -6.4821   0.0000   0.0000   0.0000   0.2404
  14.600   1.6296   0.02037   0.01510  -0.0181  0.0237  1.0000  -6.6044   0.0000   0.0000   0.0000   0.2392
  14.800   1.6391   0.02110   0.01583  -0.0170  0.0229  1.0000  -6.7261   0.0000   0.0000   0.0000   0.2380
  15.000   1.6481   0.02189   0.01663  -0.0158  0.0219  1.0000  -6.8452   0.0000   0.0000   0.0000   0.2369


