xflr5 v6.61

 Calculated polar for: NACA 2415

 1 1 Reynolds number fixed          Mach number fixed         

 xtrf =   1.000 (top)        1.000 (bottom)
 Mach =   0.000     Re =     1.500 e 6     Ncrit =   9.000

  alpha     CL        CD       CDp       Cm    Top Xtr Bot Xtr   Cpmin    Chinge    XCp    
 ------- -------- --------- --------- -------- ------- ------- -------- --------- ---------
 -10.000  -0.8489   0.01198   0.00675  -0.0591  0.9763  0.0352  -4.7012   0.0000   0.0000   0.0000   0.1666
  -9.800  -0.8277   0.01179   0.00654  -0.0589  0.9724  0.0358  -4.5621   0.0000   0.0000   0.0000   0.1652
  -9.600  -0.8059   0.01161   0.00635  -0.0588  0.9686  0.0361  -4.4226   0.0000   0.0000   0.0000   0.1635
  -9.400  -0.7833   0.01144   0.00616  -0.0589  0.9651  0.0364  -4.2820   0.0000   0.0000   0.0000   0.1615
  -9.200  -0.7641   0.01111   0.00580  -0.0583  0.9605  0.0388  -4.1605   0.0000   0.0000   0.0000   0.1606
  -9.000  -0.7449   0.01084   0.00553  -0.0577  0.9550  0.0413  -4.0360   0.0000   0.0000   0.0000   0.1596
  -8.800  -0.7246   0.01062   0.00532  -0.0573  0.9495  0.0432  -3.9082   0.0000   0.0000   0.0000   0.1582
  -8.600  -0.7037   0.01043   0.00512  -0.0570  0.9440  0.0448  -3.7798   0.0000   0.0000   0.0000   0.1564
  -8.400  -0.6829   0.01026   0.00495  -0.0566  0.9386  0.0460  -3.6531   0.0000   0.0000   0.0000   0.1546
  -8.200  -0.6617   0.01013   0.00479  -0.0563  0.9327  0.0468  -3.5263   0.0000   0.0000   0.0000   0.1525
  -8.000  -0.6404   0.00999   0.00462  -0.0561  0.9270  0.0477  -3.4012   0.0000   0.0000   0.0000   0.1502
  -7.800  -0.6196   0.00975   0.00438  -0.0558  0.9218  0.0519  -3.2817   0.0000   0.0000   0.0000   0.1478
  -7.600  -0.5983   0.00955   0.00422  -0.0556  0.9166  0.0551  -3.1603   0.0000   0.0000   0.0000   0.1450
  -7.400  -0.5768   0.00939   0.00406  -0.0554  0.9105  0.0575  -3.0396   0.0000   0.0000   0.0000   0.1420
  -7.200  -0.5551   0.00928   0.00391  -0.0552  0.9037  0.0588  -2.9207   0.0000   0.0000   0.0000   0.1387
  -7.000  -0.5334   0.00913   0.00374  -0.0550  0.8976  0.0617  -2.8103   0.0000   0.0000   0.0000   0.1350
  -6.800  -0.5119   0.00894   0.00357  -0.0548  0.8907  0.0665  -2.7103   0.0000   0.0000   0.0000   0.1311
  -6.600  -0.4903   0.00880   0.00343  -0.0546  0.8830  0.0699  -2.6103   0.0000   0.0000   0.0000   0.1268
  -6.400  -0.4683   0.00870   0.00330  -0.0545  0.8757  0.0721  -2.5106   0.0000   0.0000   0.0000   0.1219
  -6.200  -0.4462   0.00856   0.00316  -0.0544  0.8697  0.0767  -2.4125   0.0000   0.0000   0.0000   0.1163
  -6.000  -0.4244   0.00840   0.00303  -0.0543  0.8620  0.0821  -2.3162   0.0000   0.0000   0.0000   0.1104
  -5.800  -0.4026   0.00831   0.00291  -0.0541  0.8531  0.0858  -2.2207   0.0000   0.0000   0.0000   0.1039
  -5.600  -0.3803   0.00819   0.00279  -0.0540  0.8460  0.0911  -2.1260   0.0000   0.0000   0.0000   0.0961
  -5.400  -0.3585   0.00804   0.00266  -0.0539  0.8369  0.0986  -2.0340   0.0000   0.0000   0.0000   0.0878
  -5.200  -0.3366   0.00797   0.00256  -0.0537  0.8265  0.1027  -1.9421   0.0000   0.0000   0.0000   0.0784
  -5.000  -0.3144   0.00783   0.00244  -0.0536  0.8193  0.1113  -1.8516   0.0000   0.0000   0.0000   0.0672
  -4.800  -0.2922   0.00773   0.00235  -0.0536  0.8103  0.1177  -1.7618   0.0000   0.0000   0.0000   0.0542
  -4.600  -0.2704   0.00766   0.00225  -0.0534  0.7992  0.1249  -1.6818   0.0000   0.0000   0.0000   0.0398
  -4.400  -0.2481   0.00754   0.00216  -0.0534  0.7908  0.1335  -1.6058   0.0000   0.0000   0.0000   0.0219
  -4.200  -0.2258   0.00747   0.00208  -0.0533  0.7799  0.1410  -1.5309   0.0000   0.0000   0.0000   0.0007
  -4.000  -0.2041   0.00737   0.00199  -0.0531  0.7688  0.1526  -1.4580   0.0000   0.0000   0.0000  -0.0241
  -3.800  -0.1816   0.00727   0.00192  -0.0531  0.7604  0.1628  -1.3847   0.0000   0.0000   0.0000  -0.0571
  -3.600  -0.1596   0.00720   0.00184  -0.0530  0.7488  0.1732  -1.3137   0.0000   0.0000   0.0000  -0.0974
  -3.400  -0.1374   0.00714   0.00177  -0.0529  0.7379  0.1834  -1.2430   0.0000   0.0000   0.0000  -0.1517
  -3.200  -0.1151   0.00706   0.00171  -0.0528  0.7271  0.1947  -1.1762   0.0000   0.0000   0.0000  -0.2277
  -3.000  -0.0933   0.00700   0.00165  -0.0527  0.7144  0.2087  -1.1167   0.0000   0.0000   0.0000  -0.3354
  -2.600  -0.0486   0.00686   0.00156  -0.0526  0.6935  0.2355  -0.9984   0.0000   0.0000   0.0000  -0.8644
  -2.400  -0.0264   0.00684   0.00152  -0.0525  0.6812  0.2473  -0.9406   0.0000   0.0000   0.0000  -1.7909
  -2.200  -0.0040   0.00676   0.00148  -0.0524  0.6710  0.2633  -0.8850   0.0000   0.0000   0.0000  -13.0614
  -2.000   0.0178   0.00672   0.00144  -0.0523  0.6583  0.2807  -0.8360   0.0000   0.0000   0.0000   3.2553
  -1.800   0.0404   0.00668   0.00142  -0.0523  0.6483  0.2941  -0.7866   0.0000   0.0000   0.0000   1.5687
  -1.600   0.0626   0.00663   0.00138  -0.0522  0.6364  0.3113  -0.7383   0.0000   0.0000   0.0000   1.0980
  -1.400   0.0844   0.00659   0.00136  -0.0521  0.6237  0.3309  -0.6923   0.0000   0.0000   0.0000   0.8749
  -1.200   0.1071   0.00654   0.00134  -0.0521  0.6149  0.3486  -0.6501   0.0000   0.0000   0.0000   0.7415
  -1.000   0.1291   0.00652   0.00133  -0.0520  0.6025  0.3664  -0.6089   0.0000   0.0000   0.0000   0.6556
  -0.800   0.1512   0.00646   0.00131  -0.0519  0.5917  0.3905  -0.6033   0.0000   0.0000   0.0000   0.5948
  -0.600   0.1734   0.00639   0.00130  -0.0519  0.5819  0.4162  -0.6218   0.0000   0.0000   0.0000   0.5494
  -0.400   0.1951   0.00636   0.00130  -0.0517  0.5696  0.4441  -0.6401   0.0000   0.0000   0.0000   0.5145
  -0.200   0.2173   0.00628   0.00130  -0.0517  0.5609  0.4761  -0.6587   0.0000   0.0000   0.0000   0.4865
   0.000   0.2394   0.00623   0.00131  -0.0516  0.5511  0.5057  -0.6781   0.0000   0.0000   0.0000   0.4636
   0.200   0.2610   0.00621   0.00133  -0.0515  0.5391  0.5340  -0.6980   0.0000   0.0000   0.0000   0.4447
   0.400   0.2834   0.00615   0.00134  -0.0514  0.5318  0.5629  -0.7183   0.0000   0.0000   0.0000   0.4286
   0.600   0.3055   0.00612   0.00136  -0.0513  0.5228  0.5891  -0.7392   0.0000   0.0000   0.0000   0.4148
   0.800   0.3272   0.00612   0.00138  -0.0512  0.5118  0.6152  -0.7609   0.0000   0.0000   0.0000   0.4028
   1.000   0.3495   0.00609   0.00141  -0.0511  0.5044  0.6407  -0.7830   0.0000   0.0000   0.0000   0.3923
   1.200   0.3719   0.00607   0.00144  -0.0510  0.4969  0.6642  -0.8061   0.0000   0.0000   0.0000   0.3831
   1.400   0.3937   0.00608   0.00147  -0.0509  0.4876  0.6888  -0.8299   0.0000   0.0000   0.0000   0.3748
   1.600   0.4157   0.00609   0.00151  -0.0507  0.4781  0.7124  -0.8537   0.0000   0.0000   0.0000   0.3674
   1.800   0.4379   0.00606   0.00155  -0.0506  0.4725  0.7377  -0.8799   0.0000   0.0000   0.0000   0.3608
   2.000   0.4597   0.00605   0.00160  -0.0505  0.4648  0.7624  -0.9059   0.0000   0.0000   0.0000   0.3547
   2.200   0.4811   0.00609   0.00166  -0.0502  0.4549  0.7856  -0.9332   0.0000   0.0000   0.0000   0.3490
   2.400   0.5030   0.00608   0.00171  -0.0500  0.4481  0.8089  -0.9617   0.0000   0.0000   0.0000   0.3439
   2.600   0.5250   0.00609   0.00176  -0.0498  0.4420  0.8308  -0.9920   0.0000   0.0000   0.0000   0.3392
   3.000   0.5673   0.00619   0.00190  -0.0491  0.4229  0.8735  -1.0556   0.0000   0.0000   0.0000   0.3305
   3.200   0.5889   0.00620   0.00196  -0.0488  0.4180  0.8925  -1.0900   0.0000   0.0000   0.0000   0.3266
   3.400   0.6101   0.00625   0.00203  -0.0485  0.4100  0.9093  -1.1273   0.0000   0.0000   0.0000   0.3230
   3.600   0.6308   0.00636   0.00211  -0.0480  0.3990  0.9246  -1.1652   0.0000   0.0000   0.0000   0.3195
   3.800   0.6517   0.00642   0.00219  -0.0476  0.3914  0.9390  -1.2068   0.0000   0.0000   0.0000   0.3161
   4.000   0.6731   0.00651   0.00227  -0.0473  0.3824  0.9502  -1.2505   0.0000   0.0000   0.0000   0.3131
   4.200   0.6937   0.00666   0.00237  -0.0468  0.3694  0.9614  -1.2967   0.0000   0.0000   0.0000   0.3102
   4.400   0.7174   0.00675   0.00245  -0.0470  0.3615  0.9688  -1.3479   0.0000   0.0000   0.0000   0.3081
   4.600   0.7401   0.00691   0.00254  -0.0471  0.3490  0.9765  -1.4030   0.0000   0.0000   0.0000   0.3060
   4.800   0.7646   0.00706   0.00264  -0.0476  0.3380  0.9819  -1.4609   0.0000   0.0000   0.0000   0.3044
   5.000   0.7919   0.00723   0.00276  -0.0487  0.3249  0.9857  -1.5275   0.0000   0.0000   0.0000   0.3034
   5.200   0.8196   0.00742   0.00288  -0.0499  0.3120  0.9893  -1.5984   0.0000   0.0000   0.0000   0.3027
   5.400   0.8467   0.00762   0.00301  -0.0510  0.2990  0.9926  -1.6693   0.0000   0.0000   0.0000   0.3018
   5.600   0.8764   0.00782   0.00316  -0.0527  0.2842  0.9940  -1.7486   0.0000   0.0000   0.0000   0.3015
   5.800   0.9042   0.00806   0.00331  -0.0540  0.2685  0.9953  -1.8316   0.0000   0.0000   0.0000   0.3010
   6.000   0.9315   0.00823   0.00343  -0.0552  0.2576  0.9967  -1.9152   0.0000   0.0000   0.0000   0.3003
   6.200   0.9578   0.00850   0.00360  -0.0562  0.2407  0.9981  -1.9978   0.0000   0.0000   0.0000   0.2995
   6.400   0.9840   0.00876   0.00377  -0.0573  0.2256  0.9994  -2.0816   0.0000   0.0000   0.0000   0.2988
   6.600   1.0064   0.00895   0.00392  -0.0574  0.2142  1.0000  -2.1663   0.0000   0.0000   0.0000   0.2974
   6.800   1.0209   0.00918   0.00407  -0.0559  0.2025  1.0000  -2.2405   0.0000   0.0000   0.0000   0.2949
   7.000   1.0365   0.00935   0.00421  -0.0546  0.1929  1.0000  -2.3177   0.0000   0.0000   0.0000   0.2925
   7.200   1.0508   0.00961   0.00439  -0.0531  0.1800  1.0000  -2.3929   0.0000   0.0000   0.0000   0.2901
   7.400   1.0664   0.00982   0.00456  -0.0518  0.1695  1.0000  -2.4721   0.0000   0.0000   0.0000   0.2879
   7.600   1.0809   0.01011   0.00477  -0.0503  0.1562  1.0000  -2.5491   0.0000   0.0000   0.0000   0.2857
   7.800   1.0972   0.01031   0.00494  -0.0492  0.1485  1.0000  -2.6312   0.0000   0.0000   0.0000   0.2837
   8.000   1.1124   0.01060   0.00515  -0.0479  0.1374  1.0000  -2.7113   0.0000   0.0000   0.0000   0.2816
   8.200   1.1296   0.01081   0.00533  -0.0469  0.1308  1.0000  -2.7968   0.0000   0.0000   0.0000   0.2799
   8.400   1.1454   0.01112   0.00557  -0.0458  0.1206  1.0000  -2.8835   0.0000   0.0000   0.0000   0.2781
   8.600   1.1632   0.01133   0.00576  -0.0450  0.1148  1.0000  -2.9845   0.0000   0.0000   0.0000   0.2765
   8.800   1.1795   0.01165   0.00602  -0.0440  0.1064  1.0000  -3.0825   0.0000   0.0000   0.0000   0.2749
   9.000   1.1969   0.01190   0.00625  -0.0432  0.0997  1.0000  -3.1847   0.0000   0.0000   0.0000   0.2734
   9.200   1.2131   0.01223   0.00652  -0.0422  0.0923  1.0000  -3.2850   0.0000   0.0000   0.0000   0.2718
   9.400   1.2299   0.01252   0.00679  -0.0413  0.0858  1.0000  -3.3883   0.0000   0.0000   0.0000   0.2703
   9.600   1.2470   0.01278   0.00703  -0.0405  0.0815  1.0000  -3.4935   0.0000   0.0000   0.0000   0.2689
   9.800   1.2626   0.01313   0.00733  -0.0394  0.0758  1.0000  -3.5952   0.0000   0.0000   0.0000   0.2674
  10.000   1.2792   0.01340   0.00760  -0.0385  0.0716  1.0000  -3.7008   0.0000   0.0000   0.0000   0.2660
  10.200   1.2957   0.01367   0.00786  -0.0376  0.0686  1.0000  -3.8073   0.0000   0.0000   0.0000   0.2646
  10.400   1.3096   0.01400   0.00816  -0.0362  0.0648  1.0000  -3.9077   0.0000   0.0000   0.0000   0.2629
  10.600   1.3225   0.01437   0.00850  -0.0347  0.0600  1.0000  -4.0056   0.0000   0.0000   0.0000   0.2612
  10.800   1.3377   0.01464   0.00878  -0.0335  0.0582  1.0000  -4.1114   0.0000   0.0000   0.0000   0.2597
  11.000   1.3523   0.01494   0.00909  -0.0324  0.0562  1.0000  -4.2168   0.0000   0.0000   0.0000   0.2583
  11.200   1.3658   0.01531   0.00944  -0.0310  0.0536  1.0000  -4.3195   0.0000   0.0000   0.0000   0.2568
  11.400   1.3784   0.01575   0.00987  -0.0296  0.0504  1.0000  -4.4194   0.0000   0.0000   0.0000   0.2552
  11.600   1.3910   0.01618   0.01030  -0.0282  0.0471  1.0000  -4.5232   0.0000   0.0000   0.0000   0.2537
  11.800   1.4060   0.01650   0.01065  -0.0273  0.0464  1.0000  -4.6485   0.0000   0.0000   0.0000   0.2525
  12.000   1.4200   0.01688   0.01103  -0.0262  0.0450  1.0000  -4.7714   0.0000   0.0000   0.0000   0.2512
  12.200   1.4326   0.01733   0.01148  -0.0249  0.0432  1.0000  -4.8902   0.0000   0.0000   0.0000   0.2498
  12.400   1.4442   0.01785   0.01199  -0.0236  0.0411  1.0000  -5.0064   0.0000   0.0000   0.0000   0.2484
  12.600   1.4549   0.01844   0.01258  -0.0222  0.0385  1.0000  -5.1192   0.0000   0.0000   0.0000   0.2470
  12.800   1.4656   0.01905   0.01320  -0.0209  0.0364  1.0000  -5.2318   0.0000   0.0000   0.0000   0.2456
  13.000   1.4790   0.01950   0.01368  -0.0199  0.0360  1.0000  -5.3579   0.0000   0.0000   0.0000   0.2445
  13.200   1.4915   0.02000   0.01420  -0.0189  0.0356  1.0000  -5.4817   0.0000   0.0000   0.0000   0.2433
  13.400   1.5038   0.02054   0.01477  -0.0179  0.0349  1.0000  -5.6051   0.0000   0.0000   0.0000   0.2422
  13.600   1.5148   0.02117   0.01543  -0.0168  0.0340  1.0000  -5.7244   0.0000   0.0000   0.0000   0.2410
  13.800   1.5252   0.02186   0.01613  -0.0158  0.0330  1.0000  -5.8420   0.0000   0.0000   0.0000   0.2399
  14.000   1.5347   0.02263   0.01691  -0.0147  0.0319  1.0000  -5.9570   0.0000   0.0000   0.0000   0.2387
  14.200   1.5427   0.02351   0.01780  -0.0135  0.0307  1.0000  -6.0660   0.0000   0.0000   0.0000   0.2375
  14.400   1.5500   0.02446   0.01878  -0.0123  0.0291  1.0000  -6.1711   0.0000   0.0000   0.0000   0.2363
  14.600   1.5552   0.02561   0.01996  -0.0110  0.0276  1.0000  -6.2663   0.0000   0.0000   0.0000   0.2350
  14.800   1.5622   0.02666   0.02107  -0.0100  0.0269  1.0000  -6.3709   0.0000   0.0000   0.0000   0.2339
  15.000   1.5717   0.02756   0.02199  -0.0093  0.0268  1.0000  -6.4894   0.0000   0.0000   0.0000   0.2330


