xflr5 v6.61

 Calculated polar for: NACA 2415

 1 1 Reynolds number fixed          Mach number fixed         

 xtrf =   1.000 (top)        1.000 (bottom)
 Mach =   0.000     Re =     0.500 e 6     Ncrit =   9.000

  alpha     CL        CD       CDp       Cm    Top Xtr Bot Xtr   Cpmin    Chinge    XCp    
 ------- -------- --------- --------- -------- ------- ------- -------- --------- ---------
 -10.000  -0.9225   0.01899   0.01286  -0.0420  0.9933  0.0446  -4.7959   0.0000   0.0000   0.0000   0.1911
  -9.800  -0.8968   0.01862   0.01244  -0.0430  0.9913  0.0458  -4.6506   0.0000   0.0000   0.0000   0.1888
  -9.600  -0.8708   0.01830   0.01207  -0.0440  0.9888  0.0467  -4.5045   0.0000   0.0000   0.0000   0.1864
  -9.400  -0.8455   0.01774   0.01145  -0.0450  0.9864  0.0479  -4.3686   0.0000   0.0000   0.0000   0.1838
  -9.200  -0.8213   0.01690   0.01060  -0.0460  0.9842  0.0508  -4.2424   0.0000   0.0000   0.0000   0.1812
  -9.000  -0.7934   0.01648   0.01019  -0.0475  0.9825  0.0530  -4.0944   0.0000   0.0000   0.0000   0.1775
  -8.800  -0.7639   0.01618   0.00986  -0.0492  0.9812  0.0553  -3.9409   0.0000   0.0000   0.0000   0.1730
  -8.600  -0.7338   0.01592   0.00957  -0.0510  0.9801  0.0576  -3.7890   0.0000   0.0000   0.0000   0.1681
  -8.400  -0.7108   0.01571   0.00932  -0.0512  0.9761  0.0589  -3.6587   0.0000   0.0000   0.0000   0.1656
  -8.200  -0.6871   0.01505   0.00865  -0.0518  0.9727  0.0624  -3.5381   0.0000   0.0000   0.0000   0.1624
  -8.000  -0.6597   0.01462   0.00825  -0.0531  0.9703  0.0658  -3.4011   0.0000   0.0000   0.0000   0.1573
  -7.800  -0.6299   0.01431   0.00794  -0.0548  0.9685  0.0689  -3.2583   0.0000   0.0000   0.0000   0.1509
  -7.600  -0.5992   0.01404   0.00764  -0.0566  0.9671  0.0717  -3.1149   0.0000   0.0000   0.0000   0.1434
  -7.400  -0.5704   0.01357   0.00716  -0.0581  0.9654  0.0761  -2.9828   0.0000   0.0000   0.0000   0.1360
  -7.200  -0.5413   0.01319   0.00681  -0.0596  0.9637  0.0810  -2.8493   0.0000   0.0000   0.0000   0.1276
  -7.000  -0.5225   0.01297   0.00658  -0.0589  0.9571  0.0845  -2.7517   0.0000   0.0000   0.0000   0.1252
  -6.800  -0.4978   0.01272   0.00631  -0.0593  0.9528  0.0885  -2.6474   0.0000   0.0000   0.0000   0.1187
  -6.600  -0.4731   0.01232   0.00598  -0.0599  0.9492  0.0956  -2.5448   0.0000   0.0000   0.0000   0.1112
  -6.400  -0.4474   0.01209   0.00574  -0.0605  0.9460  0.1011  -2.4399   0.0000   0.0000   0.0000   0.1025
  -6.200  -0.4268   0.01182   0.00548  -0.0601  0.9407  0.1072  -2.3486   0.0000   0.0000   0.0000   0.0968
  -6.000  -0.4064   0.01156   0.00527  -0.0597  0.9346  0.1141  -2.2576   0.0000   0.0000   0.0000   0.0907
  -5.800  -0.3835   0.01139   0.00507  -0.0597  0.9294  0.1196  -2.1624   0.0000   0.0000   0.0000   0.0820
  -5.600  -0.3610   0.01106   0.00480  -0.0597  0.9247  0.1294  -2.0699   0.0000   0.0000   0.0000   0.0721
  -5.400  -0.3405   0.01090   0.00462  -0.0592  0.9178  0.1368  -1.9825   0.0000   0.0000   0.0000   0.0635
  -5.200  -0.3203   0.01064   0.00442  -0.0587  0.9104  0.1474  -1.8964   0.0000   0.0000   0.0000   0.0540
  -5.000  -0.2979   0.01047   0.00424  -0.0586  0.9043  0.1565  -1.8064   0.0000   0.0000   0.0000   0.0404
  -4.800  -0.2767   0.01023   0.00407  -0.0583  0.8980  0.1691  -1.7220   0.0000   0.0000   0.0000   0.0261
  -4.600  -0.2560   0.01008   0.00393  -0.0579  0.8901  0.1794  -1.6490   0.0000   0.0000   0.0000   0.0104
  -4.400  -0.2346   0.00987   0.00376  -0.0576  0.8826  0.1922  -1.5757   0.0000   0.0000   0.0000  -0.0094
  -4.200  -0.2127   0.00970   0.00361  -0.0574  0.8754  0.2054  -1.5024   0.0000   0.0000   0.0000  -0.0342
  -4.000  -0.1918   0.00956   0.00350  -0.0570  0.8664  0.2190  -1.4315   0.0000   0.0000   0.0000  -0.0623
  -3.800  -0.1705   0.00937   0.00336  -0.0567  0.8576  0.2352  -1.3612   0.0000   0.0000   0.0000  -0.0983
  -3.600  -0.1486   0.00924   0.00322  -0.0565  0.8496  0.2500  -1.2911   0.0000   0.0000   0.0000  -0.1469
  -3.400  -0.1273   0.00911   0.00313  -0.0562  0.8404  0.2651  -1.2224   0.0000   0.0000   0.0000  -0.2101
  -3.200  -0.1059   0.00895   0.00301  -0.0559  0.8309  0.2835  -1.1605   0.0000   0.0000   0.0000  -0.2983
  -3.000  -0.0844   0.00883   0.00291  -0.0557  0.8216  0.3017  -1.1018   0.0000   0.0000   0.0000  -0.4331
  -2.800  -0.0629   0.00871   0.00283  -0.0554  0.8111  0.3195  -1.0438   0.0000   0.0000   0.0000  -0.6596
  -2.600  -0.0414   0.00860   0.00274  -0.0551  0.8011  0.3391  -0.9865   0.0000   0.0000   0.0000  -1.1224
  -2.400  -0.0201   0.00847   0.00267  -0.0549  0.7914  0.3613  -0.9302   0.0000   0.0000   0.0000  -2.5602
  -2.200   0.0012   0.00834   0.00259  -0.0546  0.7803  0.3844  -0.8778   0.0000   0.0000   0.0000  48.4968
  -2.000   0.0223   0.00824   0.00252  -0.0542  0.7693  0.4090  -0.8297   0.0000   0.0000   0.0000   2.7305
  -1.800   0.0434   0.00810   0.00247  -0.0539  0.7585  0.4388  -0.7823   0.0000   0.0000   0.0000   1.5154
  -1.600   0.0643   0.00799   0.00241  -0.0535  0.7471  0.4715  -0.7355   0.0000   0.0000   0.0000   1.0957
  -1.400   0.0853   0.00789   0.00238  -0.0532  0.7365  0.5042  -0.6911   0.0000   0.0000   0.0000   0.8813
  -1.200   0.1063   0.00779   0.00235  -0.0528  0.7245  0.5375  -0.6505   0.0000   0.0000   0.0000   0.7519
  -1.000   0.1268   0.00773   0.00233  -0.0523  0.7125  0.5698  -0.6108   0.0000   0.0000   0.0000   0.6655
  -0.800   0.1479   0.00763   0.00233  -0.0520  0.7017  0.6008  -0.6006   0.0000   0.0000   0.0000   0.6027
  -0.600   0.1686   0.00758   0.00232  -0.0515  0.6897  0.6312  -0.6183   0.0000   0.0000   0.0000   0.5556
  -0.400   0.1895   0.00753   0.00233  -0.0510  0.6785  0.6599  -0.6362   0.0000   0.0000   0.0000   0.5188
  -0.200   0.2104   0.00749   0.00234  -0.0506  0.6665  0.6881  -0.6541   0.0000   0.0000   0.0000   0.4892
   0.000   0.2308   0.00750   0.00236  -0.0500  0.6546  0.7154  -0.6725   0.0000   0.0000   0.0000   0.4648
   0.400   0.2725   0.00745   0.00242  -0.0490  0.6325  0.7686  -0.7114   0.0000   0.0000   0.0000   0.4271
   0.600   0.2930   0.00746   0.00246  -0.0484  0.6216  0.7938  -0.7311   0.0000   0.0000   0.0000   0.4121
   0.800   0.3138   0.00745   0.00251  -0.0479  0.6112  0.8182  -0.7522   0.0000   0.0000   0.0000   0.3991
   1.000   0.3340   0.00751   0.00257  -0.0472  0.6001  0.8411  -0.7730   0.0000   0.0000   0.0000   0.3874
   1.200   0.3548   0.00755   0.00264  -0.0466  0.5902  0.8628  -0.7948   0.0000   0.0000   0.0000   0.3772
   1.400   0.3756   0.00760   0.00270  -0.0460  0.5801  0.8829  -0.8178   0.0000   0.0000   0.0000   0.3681
   1.600   0.3958   0.00771   0.00277  -0.0453  0.5697  0.9018  -0.8406   0.0000   0.0000   0.0000   0.3599
   1.800   0.4176   0.00779   0.00286  -0.0449  0.5607  0.9183  -0.8657   0.0000   0.0000   0.0000   0.3527
   2.000   0.4405   0.00788   0.00294  -0.0448  0.5512  0.9318  -0.8924   0.0000   0.0000   0.0000   0.3466
   2.200   0.4622   0.00802   0.00303  -0.0445  0.5413  0.9457  -0.9192   0.0000   0.0000   0.0000   0.3409
   2.400   0.4894   0.00814   0.00313  -0.0453  0.5323  0.9545  -0.9514   0.0000   0.0000   0.0000   0.3371
   2.600   0.5142   0.00825   0.00321  -0.0457  0.5234  0.9647  -0.9832   0.0000   0.0000   0.0000   0.3332
   2.800   0.5445   0.00841   0.00330  -0.0473  0.5132  0.9701  -1.0209   0.0000   0.0000   0.0000   0.3310
   3.000   0.5741   0.00856   0.00341  -0.0488  0.5041  0.9763  -1.0608   0.0000   0.0000   0.0000   0.3290
   3.200   0.6046   0.00867   0.00349  -0.0505  0.4950  0.9810  -1.1034   0.0000   0.0000   0.0000   0.3273
   3.400   0.6379   0.00883   0.00358  -0.0529  0.4844  0.9840  -1.1519   0.0000   0.0000   0.0000   0.3265
   3.600   0.6704   0.00896   0.00368  -0.0551  0.4751  0.9878  -1.2036   0.0000   0.0000   0.0000   0.3256
   3.800   0.7021   0.00907   0.00379  -0.0571  0.4654  0.9922  -1.2574   0.0000   0.0000   0.0000   0.3246
   4.000   0.7368   0.00924   0.00387  -0.0598  0.4540  0.9954  -1.3193   0.0000   0.0000   0.0000   0.3242
   4.200   0.7719   0.00934   0.00396  -0.0625  0.4443  0.9987  -1.3859   0.0000   0.0000   0.0000   0.3239
   4.400   0.7967   0.00943   0.00402  -0.0632  0.4343  1.0000  -1.4438   0.0000   0.0000   0.0000   0.3220
   4.600   0.8124   0.00958   0.00409  -0.0620  0.4243  1.0000  -1.4909   0.0000   0.0000   0.0000   0.3188
   4.800   0.8297   0.00964   0.00416  -0.0610  0.4164  1.0000  -1.5454   0.0000   0.0000   0.0000   0.3159
   5.000   0.8465   0.00974   0.00423  -0.0600  0.4066  1.0000  -1.6008   0.0000   0.0000   0.0000   0.3129
   5.200   0.8619   0.00991   0.00432  -0.0587  0.3958  1.0000  -1.6546   0.0000   0.0000   0.0000   0.3099
   5.400   0.8792   0.00999   0.00441  -0.0577  0.3870  1.0000  -1.7119   0.0000   0.0000   0.0000   0.3072
   5.600   0.8954   0.01013   0.00453  -0.0565  0.3761  1.0000  -1.7735   0.0000   0.0000   0.0000   0.3045
   5.800   0.9111   0.01030   0.00465  -0.0552  0.3653  1.0000  -1.8368   0.0000   0.0000   0.0000   0.3018
   6.000   0.9279   0.01044   0.00476  -0.0541  0.3542  1.0000  -1.9025   0.0000   0.0000   0.0000   0.2993
   6.200   0.9428   0.01066   0.00490  -0.0527  0.3419  1.0000  -1.9657   0.0000   0.0000   0.0000   0.2967
   6.400   0.9600   0.01080   0.00504  -0.0517  0.3316  1.0000  -2.0335   0.0000   0.0000   0.0000   0.2944
   6.600   0.9750   0.01104   0.00519  -0.0503  0.3181  1.0000  -2.0980   0.0000   0.0000   0.0000   0.2919
   6.800   0.9915   0.01123   0.00535  -0.0492  0.3065  1.0000  -2.1729   0.0000   0.0000   0.0000   0.2897
   7.000   1.0066   0.01149   0.00554  -0.0479  0.2936  1.0000  -2.2480   0.0000   0.0000   0.0000   0.2874
   7.200   1.0232   0.01170   0.00572  -0.0468  0.2821  1.0000  -2.3269   0.0000   0.0000   0.0000   0.2853
   7.400   1.0382   0.01201   0.00594  -0.0455  0.2679  1.0000  -2.4033   0.0000   0.0000   0.0000   0.2831
   7.600   1.0548   0.01225   0.00618  -0.0445  0.2550  1.0000  -2.4842   0.0000   0.0000   0.0000   0.2812
   7.800   1.0697   0.01259   0.00643  -0.0432  0.2408  1.0000  -2.5620   0.0000   0.0000   0.0000   0.2792
   8.000   1.0861   0.01287   0.00667  -0.0422  0.2283  1.0000  -2.6437   0.0000   0.0000   0.0000   0.2774
   8.200   1.1015   0.01321   0.00695  -0.0411  0.2159  1.0000  -2.7238   0.0000   0.0000   0.0000   0.2756
   8.400   1.1168   0.01356   0.00724  -0.0399  0.2031  1.0000  -2.8047   0.0000   0.0000   0.0000   0.2738
   8.600   1.1322   0.01391   0.00753  -0.0388  0.1910  1.0000  -2.8898   0.0000   0.0000   0.0000   0.2720
   9.000   1.1610   0.01470   0.00820  -0.0363  0.1660  1.0000  -3.0739   0.0000   0.0000   0.0000   0.2685
   9.200   1.1741   0.01515   0.00858  -0.0349  0.1545  1.0000  -3.1640   0.0000   0.0000   0.0000   0.2666
   9.400   1.1874   0.01554   0.00893  -0.0334  0.1447  1.0000  -3.2554   0.0000   0.0000   0.0000   0.2648
   9.600   1.1989   0.01598   0.00935  -0.0317  0.1355  1.0000  -3.3431   0.0000   0.0000   0.0000   0.2628
   9.800   1.2114   0.01640   0.00974  -0.0302  0.1273  1.0000  -3.4339   0.0000   0.0000   0.0000   0.2610
  10.000   1.2220   0.01692   0.01021  -0.0284  0.1188  1.0000  -3.5198   0.0000   0.0000   0.0000   0.2590
  10.200   1.2350   0.01734   0.01063  -0.0270  0.1123  1.0000  -3.6133   0.0000   0.0000   0.0000   0.2574
  10.400   1.2447   0.01794   0.01118  -0.0253  0.1048  1.0000  -3.6981   0.0000   0.0000   0.0000   0.2555
  10.600   1.2573   0.01841   0.01166  -0.0240  0.0993  1.0000  -3.7912   0.0000   0.0000   0.0000   0.2540
  10.800   1.2684   0.01897   0.01220  -0.0225  0.0935  1.0000  -3.8812   0.0000   0.0000   0.0000   0.2523
  11.000   1.2762   0.01973   0.01291  -0.0207  0.0870  1.0000  -3.9609   0.0000   0.0000   0.0000   0.2505
  11.200   1.2895   0.02019   0.01341  -0.0196  0.0836  1.0000  -4.0586   0.0000   0.0000   0.0000   0.2492
  11.400   1.3000   0.02082   0.01404  -0.0183  0.0793  1.0000  -4.1485   0.0000   0.0000   0.0000   0.2477
  11.600   1.3075   0.02166   0.01485  -0.0167  0.0749  1.0000  -4.2288   0.0000   0.0000   0.0000   0.2460
  11.800   1.3163   0.02243   0.01565  -0.0153  0.0716  1.0000  -4.3123   0.0000   0.0000   0.0000   0.2445
  12.000   1.3278   0.02305   0.01634  -0.0142  0.0692  1.0000  -4.4060   0.0000   0.0000   0.0000   0.2433
  12.200   1.3373   0.02383   0.01713  -0.0130  0.0665  1.0000  -4.5049   0.0000   0.0000   0.0000   0.2420
  12.400   1.3446   0.02478   0.01808  -0.0117  0.0637  1.0000  -4.5989   0.0000   0.0000   0.0000   0.2406
  12.600   1.3480   0.02603   0.01934  -0.0102  0.0605  1.0000  -4.6764   0.0000   0.0000   0.0000   0.2390
  12.800   1.3543   0.02710   0.02046  -0.0090  0.0586  1.0000  -4.7655   0.0000   0.0000   0.0000   0.2378
  13.000   1.3644   0.02794   0.02136  -0.0082  0.0573  1.0000  -4.8707   0.0000   0.0000   0.0000   0.2367
  13.200   1.3729   0.02892   0.02240  -0.0073  0.0557  1.0000  -4.9701   0.0000   0.0000   0.0000   0.2357
  13.400   1.3800   0.03004   0.02356  -0.0065  0.0540  1.0000  -5.0649   0.0000   0.0000   0.0000   0.2347
  13.600   1.3852   0.03136   0.02490  -0.0056  0.0523  1.0000  -5.1523   0.0000   0.0000   0.0000   0.2336
  13.800   1.3883   0.03289   0.02645  -0.0047  0.0506  1.0000  -5.2309   0.0000   0.0000   0.0000   0.2326
  14.000   1.3869   0.03485   0.02845  -0.0038  0.0487  1.0000  -5.2887   0.0000   0.0000   0.0000   0.2314
  14.200   1.3828   0.03713   0.03081  -0.0028  0.0471  1.0000  -5.3328   0.0000   0.0000   0.0000   0.2303
  14.400   1.3911   0.03834   0.03208  -0.0025  0.0465  1.0000  -5.4336   0.0000   0.0000   0.0000   0.2297
  14.600   1.3974   0.03976   0.03359  -0.0022  0.0457  1.0000  -5.5262   0.0000   0.0000   0.0000   0.2290
  14.800   1.4030   0.04127   0.03516  -0.0019  0.0447  1.0000  -5.6156   0.0000   0.0000   0.0000   0.2284
  15.000   1.4069   0.04300   0.03695  -0.0017  0.0436  1.0000  -5.6981   0.0000   0.0000   0.0000   0.2278


