xflr5 v6.61

 Calculated polar for: EPPLER 715 AIRFOIL

 1 1 Reynolds number fixed          Mach number fixed         

 xtrf =   1.000 (top)        1.000 (bottom)
 Mach =   0.000     Re =     2.500 e 6     Ncrit =   9.000

  alpha     CL        CD       CDp       Cm    Top Xtr Bot Xtr   Cpmin    Chinge    XCp    
 ------- -------- --------- --------- -------- ------- ------- -------- --------- ---------
 -10.000  -0.8721   0.01366   0.00819  -0.0414  0.5619  0.0035  -8.7175   0.0000   0.0000   0.0000   0.1914
  -9.800  -0.8517   0.01329   0.00779  -0.0412  0.5614  0.0036  -8.4202   0.0000   0.0000   0.0000   0.1907
  -9.600  -0.8310   0.01295   0.00741  -0.0410  0.5608  0.0036  -8.1254   0.0000   0.0000   0.0000   0.1899
  -9.400  -0.8102   0.01262   0.00704  -0.0409  0.5599  0.0037  -7.8333   0.0000   0.0000   0.0000   0.1890
  -9.200  -0.7892   0.01231   0.00670  -0.0407  0.5587  0.0037  -7.5439   0.0000   0.0000   0.0000   0.1880
  -9.000  -0.7680   0.01201   0.00637  -0.0406  0.5571  0.0038  -7.2573   0.0000   0.0000   0.0000   0.1869
  -8.800  -0.7466   0.01174   0.00606  -0.0405  0.5549  0.0039  -6.9734   0.0000   0.0000   0.0000   0.1857
  -8.600  -0.7251   0.01149   0.00577  -0.0404  0.5523  0.0040  -6.6919   0.0000   0.0000   0.0000   0.1844
  -8.400  -0.7035   0.01126   0.00547  -0.0403  0.5495  0.0041  -6.4124   0.0000   0.0000   0.0000   0.1829
  -8.200  -0.6817   0.01105   0.00522  -0.0402  0.5467  0.0042  -6.1359   0.0000   0.0000   0.0000   0.1813
  -8.000  -0.6598   0.01086   0.00500  -0.0402  0.5438  0.0043  -5.8609   0.0000   0.0000   0.0000   0.1796
  -7.800  -0.6377   0.01069   0.00480  -0.0401  0.5407  0.0043  -5.5874   0.0000   0.0000   0.0000   0.1776
  -7.600  -0.6159   0.01045   0.00451  -0.0401  0.5373  0.0047  -5.3405   0.0000   0.0000   0.0000   0.1756
  -7.200  -0.5728   0.00984   0.00387  -0.0398  0.5302  0.0095  -4.8838   0.0000   0.0000   0.0000   0.1714
  -7.000  -0.5508   0.00963   0.00367  -0.0398  0.5271  0.0111  -4.6309   0.0000   0.0000   0.0000   0.1687
  -6.800  -0.5289   0.00940   0.00347  -0.0398  0.5244  0.0128  -4.3813   0.0000   0.0000   0.0000   0.1658
  -6.600  -0.5065   0.00926   0.00332  -0.0398  0.5221  0.0144  -4.1545   0.0000   0.0000   0.0000   0.1625
  -6.400  -0.4840   0.00910   0.00316  -0.0398  0.5201  0.0194  -3.9357   0.0000   0.0000   0.0000   0.1589
  -6.200  -0.4618   0.00890   0.00300  -0.0398  0.5183  0.0237  -3.7193   0.0000   0.0000   0.0000   0.1550
  -6.000  -0.4393   0.00875   0.00287  -0.0398  0.5166  0.0266  -3.5044   0.0000   0.0000   0.0000   0.1505
  -5.800  -0.4165   0.00864   0.00276  -0.0399  0.5150  0.0281  -3.2924   0.0000   0.0000   0.0000   0.1455
  -5.600  -0.3939   0.00849   0.00264  -0.0399  0.5135  0.0362  -3.0875   0.0000   0.0000   0.0000   0.1399
  -5.400  -0.3716   0.00828   0.00248  -0.0399  0.5132  0.0439  -2.8873   0.0000   0.0000   0.0000   0.1337
  -5.200  -0.3488   0.00815   0.00234  -0.0400  0.5131  0.0498  -2.6889   0.0000   0.0000   0.0000   0.1264
  -5.000  -0.3264   0.00793   0.00219  -0.0400  0.5130  0.0642  -2.4987   0.0000   0.0000   0.0000   0.1184
  -4.800  -0.3037   0.00777   0.00207  -0.0401  0.5129  0.0744  -2.3109   0.0000   0.0000   0.0000   0.1089
  -4.600  -0.2815   0.00751   0.00192  -0.0401  0.5128  0.0958  -2.1308   0.0000   0.0000   0.0000   0.0983
  -4.400  -0.2590   0.00730   0.00179  -0.0401  0.5127  0.1187  -1.9543   0.0000   0.0000   0.0000   0.0855
  -4.200  -0.2362   0.00713   0.00168  -0.0402  0.5126  0.1329  -1.7810   0.0000   0.0000   0.0000   0.0700
  -4.000  -0.2137   0.00691   0.00157  -0.0403  0.5124  0.1588  -1.6142   0.0000   0.0000   0.0000   0.0515
  -3.800  -0.1907   0.00679   0.00148  -0.0404  0.5121  0.1756  -1.4499   0.0000   0.0000   0.0000   0.0278
  -3.600  -0.1684   0.00653   0.00136  -0.0404  0.5118  0.2075  -1.2937   0.0000   0.0000   0.0000  -0.0012
  -3.400  -0.1459   0.00630   0.00125  -0.0405  0.5114  0.2412  -1.1418   0.0000   0.0000   0.0000  -0.0395
  -3.200  -0.1227   0.00621   0.00119  -0.0406  0.5110  0.2564  -1.0299   0.0000   0.0000   0.0000  -0.0941
  -3.000  -0.1000   0.00602   0.00109  -0.0407  0.5105  0.2843  -0.9467   0.0000   0.0000   0.0000  -0.1718
  -2.800  -0.0771   0.00587   0.00103  -0.0408  0.5099  0.3143  -0.8729   0.0000   0.0000   0.0000  -0.2965
  -2.600  -0.0543   0.00572   0.00098  -0.0409  0.5092  0.3414  -0.8006   0.0000   0.0000   0.0000  -0.5248
  -2.400  -0.0314   0.00558   0.00094  -0.0410  0.5084  0.3723  -0.7441   0.0000   0.0000   0.0000  -1.0883
  -2.200  -0.0082   0.00551   0.00092  -0.0411  0.5074  0.3871  -0.6908   0.0000   0.0000   0.0000  -4.8943
  -2.000   0.0153   0.00547   0.00090  -0.0412  0.5063  0.4015  -0.6488   0.0000   0.0000   0.0000   3.0036
  -1.800   0.0385   0.00541   0.00090  -0.0413  0.5050  0.4170  -0.6640   0.0000   0.0000   0.0000   1.3412
  -1.600   0.0619   0.00537   0.00090  -0.0415  0.5035  0.4295  -0.6793   0.0000   0.0000   0.0000   0.9296
  -1.400   0.0854   0.00537   0.00090  -0.0416  0.5019  0.4344  -0.6947   0.0000   0.0000   0.0000   0.7426
  -1.200   0.1090   0.00538   0.00088  -0.0418  0.5001  0.4362  -0.7102   0.0000   0.0000   0.0000   0.6363
  -1.000   0.1326   0.00539   0.00087  -0.0420  0.4982  0.4375  -0.7256   0.0000   0.0000   0.0000   0.5678
  -0.800   0.1562   0.00541   0.00087  -0.0421  0.4963  0.4383  -0.7411   0.0000   0.0000   0.0000   0.5200
  -0.600   0.1798   0.00543   0.00087  -0.0423  0.4942  0.4387  -0.7566   0.0000   0.0000   0.0000   0.4848
  -0.400   0.2032   0.00543   0.00086  -0.0425  0.4921  0.4452  -0.7720   0.0000   0.0000   0.0000   0.4579
  -0.200   0.2266   0.00543   0.00086  -0.0426  0.4897  0.4547  -0.7874   0.0000   0.0000   0.0000   0.4365
   0.000   0.2500   0.00543   0.00087  -0.0428  0.4868  0.4620  -0.8029   0.0000   0.0000   0.0000   0.4191
   0.200   0.2734   0.00544   0.00088  -0.0429  0.4835  0.4671  -0.8183   0.0000   0.0000   0.0000   0.4047
   0.400   0.2967   0.00545   0.00090  -0.0431  0.4801  0.4721  -0.8336   0.0000   0.0000   0.0000   0.3926
   0.600   0.3201   0.00547   0.00093  -0.0432  0.4772  0.4770  -0.8490   0.0000   0.0000   0.0000   0.3822
   0.800   0.3436   0.00550   0.00096  -0.0434  0.4750  0.4810  -0.8644   0.0000   0.0000   0.0000   0.3732
   1.000   0.3670   0.00553   0.00100  -0.0436  0.4728  0.4836  -0.8798   0.0000   0.0000   0.0000   0.3654
   1.200   0.3905   0.00557   0.00104  -0.0438  0.4704  0.4854  -0.8952   0.0000   0.0000   0.0000   0.3585
   1.400   0.4139   0.00561   0.00108  -0.0439  0.4678  0.4866  -0.9106   0.0000   0.0000   0.0000   0.3523
   1.600   0.4373   0.00565   0.00112  -0.0441  0.4656  0.4875  -0.9261   0.0000   0.0000   0.0000   0.3468
   1.800   0.4610   0.00565   0.00113  -0.0443  0.4654  0.4883  -0.9429   0.0000   0.0000   0.0000   0.3419
   2.000   0.4846   0.00566   0.00113  -0.0445  0.4653  0.4890  -0.9608   0.0000   0.0000   0.0000   0.3374
   2.200   0.5082   0.00567   0.00115  -0.0447  0.4651  0.4897  -0.9787   0.0000   0.0000   0.0000   0.3334
   2.400   0.5318   0.00568   0.00117  -0.0449  0.4649  0.4901  -0.9967   0.0000   0.0000   0.0000   0.3297
   2.600   0.5555   0.00569   0.00118  -0.0451  0.4646  0.4904  -1.0147   0.0000   0.0000   0.0000   0.3263
   2.800   0.5790   0.00569   0.00120  -0.0453  0.4642  0.4906  -1.0327   0.0000   0.0000   0.0000   0.3231
   3.000   0.6026   0.00570   0.00122  -0.0455  0.4636  0.4908  -1.0526   0.0000   0.0000   0.0000   0.3202
   3.200   0.6262   0.00571   0.00124  -0.0457  0.4629  0.4909  -1.0742   0.0000   0.0000   0.0000   0.3175
   3.400   0.6497   0.00572   0.00126  -0.0459  0.4619  0.4910  -1.0969   0.0000   0.0000   0.0000   0.3150
   3.800   0.6966   0.00575   0.00132  -0.0463  0.4587  0.4912  -1.1472   0.0000   0.0000   0.0000   0.3104
   4.000   0.7200   0.00576   0.00134  -0.0465  0.4566  0.4931  -1.1762   0.0000   0.0000   0.0000   0.3083
   4.200   0.7432   0.00578   0.00135  -0.0467  0.4530  0.4951  -1.2058   0.0000   0.0000   0.0000   0.3064
   4.400   0.7663   0.00582   0.00138  -0.0468  0.4469  0.4967  -1.2392   0.0000   0.0000   0.0000   0.3045
   4.600   0.7891   0.00589   0.00140  -0.0470  0.4390  0.4982  -1.2725   0.0000   0.0000   0.0000   0.3027
   4.800   0.8119   0.00597   0.00145  -0.0471  0.4279  0.4997  -1.3084   0.0000   0.0000   0.0000   0.3010
   5.000   0.8349   0.00603   0.00150  -0.0473  0.4196  0.5013  -1.3475   0.0000   0.0000   0.0000   0.2994
   5.200   0.8582   0.00605   0.00154  -0.0475  0.4189  0.5031  -1.3931   0.0000   0.0000   0.0000   0.2979
   5.400   0.8814   0.00607   0.00159  -0.0477  0.4176  0.5051  -1.4400   0.0000   0.0000   0.0000   0.2964
   5.600   0.9044   0.00611   0.00163  -0.0478  0.4142  0.5074  -1.4894   0.0000   0.0000   0.0000   0.2950
   5.800   0.9271   0.00619   0.00170  -0.0480  0.4058  0.5101  -1.5457   0.0000   0.0000   0.0000   0.2936
   6.000   0.9486   0.00641   0.00181  -0.0480  0.3843  0.5132  -1.6009   0.0000   0.0000   0.0000   0.2922
   6.200   0.9710   0.00652   0.00190  -0.0481  0.3715  0.5168  -1.6659   0.0000   0.0000   0.0000   0.2909
   6.400   0.9931   0.00665   0.00203  -0.0481  0.3605  0.5207  -1.7361   0.0000   0.0000   0.0000   0.2897
   6.600   1.0137   0.00696   0.00224  -0.0480  0.3332  0.5244  -1.8044   0.0000   0.0000   0.0000   0.2884
   6.800   1.0354   0.00713   0.00238  -0.0481  0.3209  0.5281  -1.8875   0.0000   0.0000   0.0000   0.2872
   7.000   1.0550   0.00754   0.00265  -0.0479  0.2883  0.5319  -1.9743   0.0000   0.0000   0.0000   0.2859
   7.200   1.0738   0.00803   0.00299  -0.0476  0.2576  0.5354  -2.0605   0.0000   0.0000   0.0000   0.2846
   7.400   1.0933   0.00842   0.00328  -0.0474  0.2314  0.5384  -2.1630   0.0000   0.0000   0.0000   0.2833
   7.600   1.1125   0.00884   0.00358  -0.0472  0.2040  0.5409  -2.2721   0.0000   0.0000   0.0000   0.2821
   7.800   1.1314   0.00927   0.00389  -0.0469  0.1844  0.5429  -2.3821   0.0000   0.0000   0.0000   0.2809
   8.000   1.1518   0.00953   0.00411  -0.0468  0.1690  0.5444  -2.4988   0.0000   0.0000   0.0000   0.2798
   8.200   1.1706   0.00994   0.00442  -0.0465  0.1537  0.5454  -2.6540   0.0000   0.0000   0.0000   0.2786
   8.400   1.1902   0.01026   0.00468  -0.0463  0.1372  0.5480  -2.8426   0.0000   0.0000   0.0000   0.2775
   8.600   1.2093   0.01059   0.00497  -0.0460  0.1267  0.5594  -3.0333   0.0000   0.0000   0.0000   0.2764
   8.800   1.2271   0.01101   0.00532  -0.0456  0.1081  0.5720  -3.2219   0.0000   0.0000   0.0000   0.2753
   9.000   1.2452   0.01138   0.00566  -0.0452  0.0981  0.5819  -3.4167   0.0000   0.0000   0.0000   0.2742
   9.200   1.2616   0.01187   0.00607  -0.0446  0.0799  0.5906  -3.6061   0.0000   0.0000   0.0000   0.2729
   9.400   1.2788   0.01226   0.00644  -0.0442  0.0718  0.5993  -3.8049   0.0000   0.0000   0.0000   0.2718
   9.600   1.2948   0.01268   0.00685  -0.0435  0.0609  0.6330  -4.0001   0.0000   0.0000   0.0000   0.2706
   9.800   1.3124   0.01287   0.00716  -0.0430  0.0554  0.6906  -4.2089   0.0000   0.0000   0.0000   0.2695
  10.000   1.3332   0.01278   0.00765  -0.0434  0.0498  1.0000  -4.4376   0.0000   0.0000   0.0000   0.2689
  10.200   1.3479   0.01329   0.00810  -0.0426  0.0425  1.0000  -4.6377   0.0000   0.0000   0.0000   0.2677
  10.400   1.3643   0.01366   0.00845  -0.0420  0.0366  1.0000  -4.8520   0.0000   0.0000   0.0000   0.2665
  10.600   1.3796   0.01408   0.00885  -0.0413  0.0338  1.0000  -5.0642   0.0000   0.0000   0.0000   0.2654
  10.800   1.3915   0.01467   0.00940  -0.0402  0.0291  1.0000  -5.2587   0.0000   0.0000   0.0000   0.2640
  11.000   1.4034   0.01520   0.00995  -0.0391  0.0244  1.0000  -5.4560   0.0000   0.0000   0.0000   0.2626
  11.200   1.4155   0.01564   0.01039  -0.0379  0.0212  1.0000  -5.6582   0.0000   0.0000   0.0000   0.2612
  11.400   1.4237   0.01610   0.01087  -0.0361  0.0206  1.0000  -5.8403   0.0000   0.0000   0.0000   0.2594
  11.600   1.4294   0.01672   0.01151  -0.0342  0.0196  1.0000  -6.0082   0.0000   0.0000   0.0000   0.2577
  11.800   1.4337   0.01760   0.01240  -0.0328  0.0182  1.0000  -6.1671   0.0000   0.0000   0.0000   0.2563
  12.000   1.4373   0.01875   0.01356  -0.0317  0.0167  1.0000  -6.3202   0.0000   0.0000   0.0000   0.2551
  12.200   1.4419   0.01999   0.01482  -0.0310  0.0150  1.0000  -6.4799   0.0000   0.0000   0.0000   0.2542
  12.400   1.4472   0.02130   0.01614  -0.0306  0.0132  1.0000  -6.6449   0.0000   0.0000   0.0000   0.2534
  12.600   1.4532   0.02259   0.01745  -0.0302  0.0113  1.0000  -6.8199   0.0000   0.0000   0.0000   0.2526
  12.800   1.4596   0.02386   0.01875  -0.0297  0.0099  1.0000  -7.0057   0.0000   0.0000   0.0000   0.2519
  13.000   1.4680   0.02492   0.01985  -0.0294  0.0097  1.0000  -7.2142   0.0000   0.0000   0.0000   0.2511
  13.200   1.4728   0.02645   0.02142  -0.0292  0.0096  1.0000  -7.3951   0.0000   0.0000   0.0000   0.2505
  13.400   1.4796   0.02770   0.02270  -0.0288  0.0095  1.0000  -7.5950   0.0000   0.0000   0.0000   0.2498
  13.600   1.4859   0.02895   0.02397  -0.0284  0.0093  1.0000  -7.7940   0.0000   0.0000   0.0000   0.2490
  13.800   1.4868   0.03081   0.02587  -0.0282  0.0090  1.0000  -7.9485   0.0000   0.0000   0.0000   0.2484
  14.000   1.4887   0.03246   0.02755  -0.0277  0.0086  1.0000  -8.1137   0.0000   0.0000   0.0000   0.2477
  14.200   1.4914   0.03401   0.02911  -0.0273  0.0080  1.0000  -8.2870   0.0000   0.0000   0.0000   0.2469
  14.400   1.4927   0.03571   0.03082  -0.0268  0.0073  1.0000  -8.4494   0.0000   0.0000   0.0000   0.2462
  14.600   1.4851   0.03849   0.03366  -0.0267  0.0068  1.0000  -8.5341   0.0000   0.0000   0.0000   0.2457
  14.800   1.4844   0.04045   0.03564  -0.0263  0.0061  1.0000  -8.6786   0.0000   0.0000   0.0000   0.2451
  15.000   1.4864   0.04216   0.03736  -0.0260  0.0051  1.0000  -8.8455   0.0000   0.0000   0.0000   0.2444


