xflr5 v6.61

 Calculated polar for: EPPLER 715 AIRFOIL

 1 1 Reynolds number fixed          Mach number fixed         

 xtrf =   1.000 (top)        1.000 (bottom)
 Mach =   0.000     Re =     3.000 e 6     Ncrit =   9.000

  alpha     CL        CD       CDp       Cm    Top Xtr Bot Xtr   Cpmin    Chinge    XCp    
 ------- -------- --------- --------- -------- ------- ------- -------- --------- ---------
 -10.000  -0.8770   0.01280   0.00737  -0.0409  0.5608  0.0032  -8.8584   0.0000   0.0000   0.0000   0.1923
  -9.800  -0.8561   0.01249   0.00704  -0.0407  0.5599  0.0032  -8.5499   0.0000   0.0000   0.0000   0.1916
  -9.600  -0.8351   0.01220   0.00671  -0.0406  0.5587  0.0033  -8.2447   0.0000   0.0000   0.0000   0.1907
  -9.400  -0.8139   0.01192   0.00640  -0.0404  0.5569  0.0034  -7.9431   0.0000   0.0000   0.0000   0.1898
  -9.200  -0.7926   0.01165   0.00611  -0.0403  0.5545  0.0034  -7.6452   0.0000   0.0000   0.0000   0.1888
  -9.000  -0.7712   0.01140   0.00582  -0.0402  0.5514  0.0035  -7.3512   0.0000   0.0000   0.0000   0.1876
  -8.800  -0.7496   0.01117   0.00555  -0.0401  0.5479  0.0036  -7.0611   0.0000   0.0000   0.0000   0.1864
  -8.600  -0.7280   0.01095   0.00529  -0.0400  0.5441  0.0037  -6.7745   0.0000   0.0000   0.0000   0.1851
  -8.400  -0.7062   0.01074   0.00501  -0.0400  0.5404  0.0038  -6.4912   0.0000   0.0000   0.0000   0.1836
  -8.200  -0.6843   0.01055   0.00478  -0.0399  0.5363  0.0040  -6.2122   0.0000   0.0000   0.0000   0.1820
  -8.000  -0.6622   0.01036   0.00457  -0.0399  0.5317  0.0041  -5.9359   0.0000   0.0000   0.0000   0.1803
  -7.800  -0.6401   0.01020   0.00438  -0.0398  0.5274  0.0043  -5.6608   0.0000   0.0000   0.0000   0.1783
  -7.600  -0.6178   0.01005   0.00422  -0.0399  0.5238  0.0043  -5.3862   0.0000   0.0000   0.0000   0.1762
  -7.200  -0.5742   0.00953   0.00368  -0.0397  0.5185  0.0088  -4.9112   0.0000   0.0000   0.0000   0.1718
  -7.000  -0.5518   0.00937   0.00352  -0.0397  0.5166  0.0097  -4.6529   0.0000   0.0000   0.0000   0.1691
  -6.800  -0.5298   0.00914   0.00333  -0.0396  0.5149  0.0116  -4.4042   0.0000   0.0000   0.0000   0.1662
  -6.600  -0.5076   0.00896   0.00317  -0.0397  0.5134  0.0130  -4.1686   0.0000   0.0000   0.0000   0.1630
  -5.800  -0.4173   0.00831   0.00259  -0.0397  0.5130  0.0271  -3.3005   0.0000   0.0000   0.0000   0.1459
  -5.600  -0.3944   0.00819   0.00248  -0.0398  0.5129  0.0306  -3.0923   0.0000   0.0000   0.0000   0.1402
  -5.400  -0.3718   0.00801   0.00234  -0.0398  0.5129  0.0391  -2.8910   0.0000   0.0000   0.0000   0.1340
  -5.200  -0.3493   0.00783   0.00218  -0.0399  0.5128  0.0457  -2.6934   0.0000   0.0000   0.0000   0.1269
  -5.000  -0.3264   0.00770   0.00207  -0.0399  0.5127  0.0550  -2.4999   0.0000   0.0000   0.0000   0.1186
  -4.800  -0.3040   0.00748   0.00193  -0.0400  0.5125  0.0681  -2.3138   0.0000   0.0000   0.0000   0.1094
  -4.600  -0.2812   0.00733   0.00182  -0.0400  0.5124  0.0819  -2.1303   0.0000   0.0000   0.0000   0.0983
  -4.400  -0.2587   0.00711   0.00169  -0.0401  0.5122  0.0985  -1.9538   0.0000   0.0000   0.0000   0.0855
  -4.200  -0.2363   0.00687   0.00156  -0.0401  0.5120  0.1249  -1.7824   0.0000   0.0000   0.0000   0.0704
  -4.000  -0.2132   0.00675   0.00148  -0.0402  0.5117  0.1384  -1.6126   0.0000   0.0000   0.0000   0.0512
  -3.800  -0.1907   0.00654   0.00137  -0.0403  0.5114  0.1616  -1.4504   0.0000   0.0000   0.0000   0.0280
  -3.600  -0.1679   0.00637   0.00128  -0.0404  0.5109  0.1878  -1.2922   0.0000   0.0000   0.0000  -0.0018
  -3.400  -0.1452   0.00618   0.00118  -0.0405  0.5104  0.2146  -1.1395   0.0000   0.0000   0.0000  -0.0408
  -3.200  -0.1225   0.00598   0.00109  -0.0406  0.5099  0.2414  -1.0294   0.0000   0.0000   0.0000  -0.0942
  -3.000  -0.0992   0.00591   0.00103  -0.0407  0.5092  0.2543  -0.9451   0.0000   0.0000   0.0000  -0.1749
  -2.800  -0.0764   0.00573   0.00096  -0.0408  0.5084  0.2828  -0.8716   0.0000   0.0000   0.0000  -0.3010
  -2.600  -0.0538   0.00555   0.00089  -0.0409  0.5074  0.3197  -0.7997   0.0000   0.0000   0.0000  -0.5327
  -2.400  -0.0307   0.00543   0.00085  -0.0410  0.5061  0.3393  -0.7431   0.0000   0.0000   0.0000  -1.1179
  -2.200  -0.0079   0.00530   0.00081  -0.0411  0.5046  0.3722  -0.6904   0.0000   0.0000   0.0000  -5.1002
  -2.000   0.0154   0.00524   0.00079  -0.0412  0.5028  0.3866  -0.6494   0.0000   0.0000   0.0000   2.9819
  -1.800   0.0389   0.00523   0.00078  -0.0413  0.5008  0.3936  -0.6648   0.0000   0.0000   0.0000   1.3306
  -1.600   0.0622   0.00518   0.00077  -0.0415  0.4986  0.4115  -0.6800   0.0000   0.0000   0.0000   0.9260
  -1.400   0.0853   0.00513   0.00077  -0.0416  0.4962  0.4284  -0.6952   0.0000   0.0000   0.0000   0.7425
  -1.200   0.1088   0.00514   0.00076  -0.0417  0.4937  0.4335  -0.7106   0.0000   0.0000   0.0000   0.6365
  -1.000   0.1324   0.00515   0.00076  -0.0419  0.4909  0.4355  -0.7260   0.0000   0.0000   0.0000   0.5680
  -0.800   0.1559   0.00517   0.00076  -0.0421  0.4879  0.4371  -0.7415   0.0000   0.0000   0.0000   0.5202
  -0.600   0.1795   0.00520   0.00076  -0.0422  0.4846  0.4380  -0.7569   0.0000   0.0000   0.0000   0.4849
  -0.400   0.2031   0.00522   0.00076  -0.0424  0.4812  0.4384  -0.7723   0.0000   0.0000   0.0000   0.4579
  -0.200   0.2266   0.00525   0.00077  -0.0426  0.4778  0.4396  -0.7877   0.0000   0.0000   0.0000   0.4364
   0.000   0.2500   0.00525   0.00078  -0.0428  0.4746  0.4476  -0.8030   0.0000   0.0000   0.0000   0.4191
   0.200   0.2734   0.00526   0.00080  -0.0429  0.4717  0.4553  -0.8183   0.0000   0.0000   0.0000   0.4047
   0.400   0.2968   0.00528   0.00083  -0.0431  0.4695  0.4617  -0.8336   0.0000   0.0000   0.0000   0.3925
   0.600   0.3202   0.00528   0.00086  -0.0432  0.4679  0.4681  -0.8489   0.0000   0.0000   0.0000   0.3822
   0.800   0.3436   0.00530   0.00091  -0.0434  0.4662  0.4743  -0.8642   0.0000   0.0000   0.0000   0.3732
   1.000   0.3671   0.00530   0.00093  -0.0436  0.4655  0.4793  -0.8799   0.0000   0.0000   0.0000   0.3654
   1.200   0.3907   0.00530   0.00094  -0.0438  0.4655  0.4825  -0.8959   0.0000   0.0000   0.0000   0.3585
   1.400   0.4144   0.00529   0.00094  -0.0440  0.4653  0.4845  -0.9120   0.0000   0.0000   0.0000   0.3523
   1.600   0.4380   0.00529   0.00094  -0.0442  0.4652  0.4857  -0.9280   0.0000   0.0000   0.0000   0.3468
   1.800   0.4617   0.00530   0.00095  -0.0444  0.4650  0.4867  -0.9442   0.0000   0.0000   0.0000   0.3419
   2.000   0.4853   0.00530   0.00096  -0.0446  0.4648  0.4876  -0.9621   0.0000   0.0000   0.0000   0.3375
   2.200   0.5090   0.00531   0.00097  -0.0448  0.4645  0.4885  -0.9800   0.0000   0.0000   0.0000   0.3334
   2.400   0.5326   0.00532   0.00099  -0.0450  0.4641  0.4893  -0.9979   0.0000   0.0000   0.0000   0.3297
   2.600   0.5562   0.00533   0.00101  -0.0452  0.4637  0.4898  -1.0158   0.0000   0.0000   0.0000   0.3263
   2.800   0.5798   0.00534   0.00103  -0.0454  0.4630  0.4901  -1.0338   0.0000   0.0000   0.0000   0.3232
   3.000   0.6034   0.00535   0.00105  -0.0456  0.4621  0.4903  -1.0535   0.0000   0.0000   0.0000   0.3203
   3.200   0.6270   0.00537   0.00108  -0.0458  0.4610  0.4904  -1.0750   0.0000   0.0000   0.0000   0.3176
   3.400   0.6505   0.00538   0.00110  -0.0460  0.4592  0.4906  -1.0976   0.0000   0.0000   0.0000   0.3151
   3.600   0.6739   0.00540   0.00112  -0.0462  0.4569  0.4907  -1.1223   0.0000   0.0000   0.0000   0.3127
   3.800   0.6973   0.00543   0.00115  -0.0464  0.4542  0.4908  -1.1478   0.0000   0.0000   0.0000   0.3105
   4.000   0.7205   0.00548   0.00118  -0.0466  0.4493  0.4910  -1.1767   0.0000   0.0000   0.0000   0.3084
   4.200   0.7435   0.00556   0.00122  -0.0467  0.4417  0.4911  -1.2062   0.0000   0.0000   0.0000   0.3064
   4.400   0.7665   0.00564   0.00127  -0.0469  0.4318  0.4912  -1.2394   0.0000   0.0000   0.0000   0.3045
   4.600   0.7895   0.00571   0.00132  -0.0471  0.4212  0.4912  -1.2728   0.0000   0.0000   0.0000   0.3027
   4.800   0.8128   0.00574   0.00136  -0.0472  0.4189  0.4915  -1.3093   0.0000   0.0000   0.0000   0.3011
   5.000   0.8361   0.00576   0.00140  -0.0474  0.4181  0.4927  -1.3488   0.0000   0.0000   0.0000   0.2995
   5.200   0.8593   0.00578   0.00143  -0.0476  0.4166  0.4939  -1.3946   0.0000   0.0000   0.0000   0.2980
   5.400   0.8824   0.00583   0.00147  -0.0478  0.4124  0.4951  -1.4414   0.0000   0.0000   0.0000   0.2965
   5.600   0.9046   0.00598   0.00155  -0.0479  0.3983  0.4965  -1.4898   0.0000   0.0000   0.0000   0.2950
   5.800   0.9265   0.00616   0.00165  -0.0479  0.3757  0.4981  -1.5450   0.0000   0.0000   0.0000   0.2936
   6.000   0.9491   0.00625   0.00172  -0.0481  0.3684  0.4999  -1.6018   0.0000   0.0000   0.0000   0.2923
   6.200   0.9702   0.00652   0.00189  -0.0480  0.3478  0.5021  -1.6648   0.0000   0.0000   0.0000   0.2909
   6.400   0.9920   0.00670   0.00203  -0.0481  0.3284  0.5049  -1.7344   0.0000   0.0000   0.0000   0.2897
   6.600   1.0131   0.00696   0.00221  -0.0480  0.3110  0.5086  -1.8035   0.0000   0.0000   0.0000   0.2884
   6.800   1.0340   0.00723   0.00240  -0.0480  0.2869  0.5134  -1.8844   0.0000   0.0000   0.0000   0.2871
   7.000   1.0533   0.00768   0.00271  -0.0477  0.2577  0.5190  -1.9703   0.0000   0.0000   0.0000   0.2858
   7.200   1.0727   0.00809   0.00300  -0.0475  0.2292  0.5245  -2.0579   0.0000   0.0000   0.0000   0.2846
   7.400   1.0922   0.00847   0.00329  -0.0473  0.2019  0.5293  -2.1602   0.0000   0.0000   0.0000   0.2833
   7.600   1.1111   0.00890   0.00360  -0.0471  0.1787  0.5335  -2.2685   0.0000   0.0000   0.0000   0.2821
   7.800   1.1322   0.00910   0.00378  -0.0470  0.1675  0.5372  -2.3848   0.0000   0.0000   0.0000   0.2810
   8.000   1.1510   0.00951   0.00409  -0.0467  0.1508  0.5402  -2.4966   0.0000   0.0000   0.0000   0.2798
   8.200   1.1714   0.00975   0.00431  -0.0466  0.1367  0.5426  -2.6584   0.0000   0.0000   0.0000   0.2787
   8.400   1.1906   0.01011   0.00459  -0.0464  0.1254  0.5443  -2.8452   0.0000   0.0000   0.0000   0.2776
   8.600   1.2095   0.01048   0.00488  -0.0461  0.1077  0.5455  -3.0347   0.0000   0.0000   0.0000   0.2765
   8.800   1.2279   0.01087   0.00520  -0.0457  0.0974  0.5491  -3.2271   0.0000   0.0000   0.0000   0.2754
   9.000   1.2454   0.01130   0.00556  -0.0453  0.0799  0.5602  -3.4186   0.0000   0.0000   0.0000   0.2742
   9.200   1.2630   0.01170   0.00592  -0.0448  0.0712  0.5721  -3.6151   0.0000   0.0000   0.0000   0.2730
   9.400   1.2802   0.01210   0.00628  -0.0443  0.0600  0.5818  -3.8133   0.0000   0.0000   0.0000   0.2719
   9.600   1.2992   0.01234   0.00654  -0.0440  0.0552  0.5909  -4.0260   0.0000   0.0000   0.0000   0.2709
   9.800   1.3163   0.01272   0.00690  -0.0435  0.0499  0.5997  -4.2325   0.0000   0.0000   0.0000   0.2697
  10.000   1.3318   0.01312   0.00732  -0.0428  0.0425  0.6361  -4.4335   0.0000   0.0000   0.0000   0.2685
  10.200   1.3485   0.01333   0.00765  -0.0422  0.0366  0.6997  -4.6458   0.0000   0.0000   0.0000   0.2674
  10.400   1.3687   0.01325   0.00814  -0.0425  0.0330  1.0000  -4.8804   0.0000   0.0000   0.0000   0.2668
  10.600   1.3819   0.01381   0.00864  -0.0415  0.0276  1.0000  -5.0798   0.0000   0.0000   0.0000   0.2655
  10.800   1.3966   0.01424   0.00905  -0.0407  0.0224  1.0000  -5.2919   0.0000   0.0000   0.0000   0.2643
  11.000   1.4121   0.01459   0.00945  -0.0400  0.0208  1.0000  -5.5125   0.0000   0.0000   0.0000   0.2631
  11.200   1.4260   0.01501   0.00986  -0.0391  0.0197  1.0000  -5.7276   0.0000   0.0000   0.0000   0.2619
  11.400   1.4354   0.01552   0.01037  -0.0376  0.0180  1.0000  -5.9185   0.0000   0.0000   0.0000   0.2603
  11.600   1.4392   0.01614   0.01099  -0.0352  0.0164  1.0000  -6.0757   0.0000   0.0000   0.0000   0.2582
  11.800   1.4424   0.01693   0.01180  -0.0333  0.0148  1.0000  -6.2290   0.0000   0.0000   0.0000   0.2565
  12.000   1.4474   0.01787   0.01275  -0.0321  0.0132  1.0000  -6.3925   0.0000   0.0000   0.0000   0.2553
  12.200   1.4541   0.01887   0.01377  -0.0313  0.0115  1.0000  -6.5683   0.0000   0.0000   0.0000   0.2543
  12.400   1.4626   0.01984   0.01476  -0.0308  0.0101  1.0000  -6.7673   0.0000   0.0000   0.0000   0.2534
  12.600   1.4706   0.02093   0.01589  -0.0304  0.0097  1.0000  -6.9693   0.0000   0.0000   0.0000   0.2526
  12.800   1.4795   0.02193   0.01692  -0.0300  0.0096  1.0000  -7.1814   0.0000   0.0000   0.0000   0.2518
  13.000   1.4858   0.02324   0.01826  -0.0298  0.0095  1.0000  -7.3752   0.0000   0.0000   0.0000   0.2512
  13.200   1.4935   0.02437   0.01941  -0.0294  0.0092  1.0000  -7.5828   0.0000   0.0000   0.0000   0.2504
  13.400   1.4976   0.02592   0.02099  -0.0291  0.0089  1.0000  -7.7632   0.0000   0.0000   0.0000   0.2497
  13.600   1.5020   0.02739   0.02248  -0.0287  0.0084  1.0000  -7.9478   0.0000   0.0000   0.0000   0.2490
  13.800   1.5058   0.02886   0.02396  -0.0283  0.0077  1.0000  -8.1289   0.0000   0.0000   0.0000   0.2483
  14.000   1.5030   0.03104   0.02618  -0.0279  0.0071  1.0000  -8.2552   0.0000   0.0000   0.0000   0.2477
  14.200   1.5030   0.03284   0.02799  -0.0274  0.0064  1.0000  -8.4070   0.0000   0.0000   0.0000   0.2469
  14.400   1.5053   0.03443   0.02960  -0.0270  0.0056  1.0000  -8.5776   0.0000   0.0000   0.0000   0.2461
  14.600   1.5079   0.03603   0.03122  -0.0265  0.0047  1.0000  -8.7512   0.0000   0.0000   0.0000   0.2454
  14.800   1.5013   0.03875   0.03401  -0.0265  0.0043  1.0000  -8.8440   0.0000   0.0000   0.0000   0.2450
  15.000   1.5047   0.04033   0.03562  -0.0262  0.0043  1.0000  -9.0302   0.0000   0.0000   0.0000   0.2443


