xflr5 v6.61

 Calculated polar for: EPPLER 715 AIRFOIL

 1 1 Reynolds number fixed          Mach number fixed         

 xtrf =   1.000 (top)        1.000 (bottom)
 Mach =   0.000     Re =     2.000 e 6     Ncrit =   9.000

  alpha     CL        CD       CDp       Cm    Top Xtr Bot Xtr   Cpmin    Chinge    XCp    
 ------- -------- --------- --------- -------- ------- ------- -------- --------- ---------
 -10.000  -0.8635   0.01508   0.00961  -0.0422  0.5677  0.0039  -8.4893   0.0000   0.0000   0.0000   0.1899
  -9.800  -0.8439   0.01464   0.00911  -0.0420  0.5624  0.0039  -8.2087   0.0000   0.0000   0.0000   0.1893
  -9.600  -0.8239   0.01422   0.00864  -0.0418  0.5621  0.0040  -7.9281   0.0000   0.0000   0.0000   0.1885
  -9.400  -0.8037   0.01381   0.00819  -0.0416  0.5617  0.0040  -7.6485   0.0000   0.0000   0.0000   0.1877
  -9.200  -0.7832   0.01344   0.00778  -0.0414  0.5611  0.0041  -7.3699   0.0000   0.0000   0.0000   0.1867
  -9.000  -0.7625   0.01309   0.00739  -0.0412  0.5604  0.0042  -7.0925   0.0000   0.0000   0.0000   0.1857
  -8.800  -0.7415   0.01277   0.00703  -0.0411  0.5595  0.0042  -6.8162   0.0000   0.0000   0.0000   0.1845
  -8.600  -0.7203   0.01247   0.00666  -0.0410  0.5583  0.0043  -6.5401   0.0000   0.0000   0.0000   0.1832
  -8.400  -0.6989   0.01219   0.00635  -0.0409  0.5567  0.0043  -6.2675   0.0000   0.0000   0.0000   0.1817
  -8.200  -0.6774   0.01194   0.00607  -0.0408  0.5548  0.0043  -5.9970   0.0000   0.0000   0.0000   0.1801
  -8.000  -0.6557   0.01170   0.00581  -0.0407  0.5529  0.0044  -5.7291   0.0000   0.0000   0.0000   0.1784
  -7.800  -0.6360   0.01104   0.00498  -0.0403  0.5509  0.0056  -5.5838   0.0000   0.0000   0.0000   0.1772
  -7.600  -0.6148   0.01069   0.00461  -0.0401  0.5489  0.0078  -5.3568   0.0000   0.0000   0.0000   0.1754
  -7.400  -0.5930   0.01045   0.00437  -0.0400  0.5467  0.0093  -5.1015   0.0000   0.0000   0.0000   0.1732
  -7.200  -0.5710   0.01026   0.00416  -0.0400  0.5445  0.0105  -4.8461   0.0000   0.0000   0.0000   0.1708
  -7.000  -0.5496   0.00996   0.00392  -0.0400  0.5421  0.0125  -4.5971   0.0000   0.0000   0.0000   0.1682
  -6.800  -0.5273   0.00982   0.00376  -0.0400  0.5397  0.0133  -4.3519   0.0000   0.0000   0.0000   0.1652
  -6.600  -0.5050   0.00962   0.00354  -0.0399  0.5371  0.0188  -4.1399   0.0000   0.0000   0.0000   0.1620
  -6.400  -0.4830   0.00941   0.00335  -0.0399  0.5344  0.0231  -3.9223   0.0000   0.0000   0.0000   0.1584
  -6.200  -0.4606   0.00924   0.00319  -0.0399  0.5317  0.0262  -3.7052   0.0000   0.0000   0.0000   0.1544
  -6.000  -0.4380   0.00911   0.00305  -0.0400  0.5292  0.0277  -3.4902   0.0000   0.0000   0.0000   0.1499
  -5.800  -0.4154   0.00897   0.00291  -0.0400  0.5268  0.0344  -3.2820   0.0000   0.0000   0.0000   0.1449
  -5.600  -0.3933   0.00876   0.00275  -0.0400  0.5246  0.0424  -3.0795   0.0000   0.0000   0.0000   0.1394
  -5.400  -0.3707   0.00862   0.00262  -0.0400  0.5225  0.0474  -2.8783   0.0000   0.0000   0.0000   0.1331
  -5.200  -0.3484   0.00841   0.00245  -0.0401  0.5204  0.0618  -2.6842   0.0000   0.0000   0.0000   0.1260
  -5.000  -0.3259   0.00825   0.00233  -0.0401  0.5184  0.0709  -2.4933   0.0000   0.0000   0.0000   0.1179
  -4.800  -0.3039   0.00800   0.00218  -0.0401  0.5164  0.0941  -2.3101   0.0000   0.0000   0.0000   0.1088
  -4.600  -0.2816   0.00781   0.00208  -0.0402  0.5144  0.1157  -2.1297   0.0000   0.0000   0.0000   0.0980
  -4.400  -0.2591   0.00762   0.00196  -0.0402  0.5132  0.1319  -1.9532   0.0000   0.0000   0.0000   0.0852
  -4.200  -0.2367   0.00739   0.00183  -0.0403  0.5131  0.1584  -1.7822   0.0000   0.0000   0.0000   0.0701
  -4.000  -0.2138   0.00725   0.00174  -0.0403  0.5130  0.1752  -1.6134   0.0000   0.0000   0.0000   0.0511
  -3.800  -0.1915   0.00700   0.00161  -0.0404  0.5128  0.2054  -1.4525   0.0000   0.0000   0.0000   0.0285
  -3.600  -0.1692   0.00673   0.00149  -0.0404  0.5126  0.2434  -1.2965   0.0000   0.0000   0.0000  -0.0002
  -3.400  -0.1462   0.00661   0.00140  -0.0405  0.5124  0.2650  -1.1425   0.0000   0.0000   0.0000  -0.0393
  -3.200  -0.1235   0.00642   0.00131  -0.0406  0.5121  0.2890  -1.0323   0.0000   0.0000   0.0000  -0.0919
  -3.000  -0.1008   0.00625   0.00122  -0.0407  0.5117  0.3196  -0.9486   0.0000   0.0000   0.0000  -0.1687
  -2.800  -0.0780   0.00609   0.00117  -0.0408  0.5113  0.3515  -0.8745   0.0000   0.0000   0.0000  -0.2903
  -2.600  -0.0552   0.00595   0.00113  -0.0409  0.5109  0.3796  -0.8021   0.0000   0.0000   0.0000  -0.5125
  -2.400  -0.0318   0.00591   0.00110  -0.0410  0.5104  0.3883  -0.7446   0.0000   0.0000   0.0000  -1.0741
  -2.200  -0.0086   0.00583   0.00110  -0.0411  0.5097  0.4124  -0.6915   0.0000   0.0000   0.0000  -4.6300
  -2.000   0.0147   0.00578   0.00109  -0.0412  0.5090  0.4246  -0.6475   0.0000   0.0000   0.0000   3.1122
  -1.800   0.0382   0.00576   0.00109  -0.0414  0.5082  0.4319  -0.6629   0.0000   0.0000   0.0000   1.3514
  -1.600   0.0618   0.00576   0.00108  -0.0415  0.5073  0.4358  -0.6783   0.0000   0.0000   0.0000   0.9312
  -1.400   0.0854   0.00577   0.00107  -0.0417  0.5063  0.4372  -0.6937   0.0000   0.0000   0.0000   0.7432
  -1.200   0.1091   0.00577   0.00106  -0.0418  0.5052  0.4382  -0.7092   0.0000   0.0000   0.0000   0.6366
  -1.000   0.1327   0.00578   0.00106  -0.0420  0.5040  0.4400  -0.7246   0.0000   0.0000   0.0000   0.5681
  -0.800   0.1561   0.00576   0.00104  -0.0422  0.5027  0.4472  -0.7400   0.0000   0.0000   0.0000   0.5205
  -0.600   0.1795   0.00574   0.00104  -0.0423  0.5014  0.4556  -0.7554   0.0000   0.0000   0.0000   0.4853
  -0.400   0.2029   0.00573   0.00105  -0.0425  0.4999  0.4638  -0.7709   0.0000   0.0000   0.0000   0.4582
  -0.200   0.2264   0.00572   0.00106  -0.0426  0.4984  0.4691  -0.7863   0.0000   0.0000   0.0000   0.4367
   0.000   0.2498   0.00573   0.00106  -0.0428  0.4969  0.4730  -0.8018   0.0000   0.0000   0.0000   0.4193
   0.200   0.2733   0.00574   0.00107  -0.0429  0.4952  0.4767  -0.8174   0.0000   0.0000   0.0000   0.4048
   0.400   0.2968   0.00576   0.00108  -0.0431  0.4931  0.4803  -0.8329   0.0000   0.0000   0.0000   0.3926
   0.600   0.3202   0.00578   0.00110  -0.0433  0.4908  0.4833  -0.8486   0.0000   0.0000   0.0000   0.3822
   0.800   0.3437   0.00582   0.00111  -0.0434  0.4883  0.4853  -0.8641   0.0000   0.0000   0.0000   0.3732
   1.000   0.3672   0.00585   0.00113  -0.0436  0.4860  0.4868  -0.8797   0.0000   0.0000   0.0000   0.3654
   1.200   0.3906   0.00588   0.00116  -0.0438  0.4837  0.4877  -0.8952   0.0000   0.0000   0.0000   0.3585
   1.400   0.4140   0.00592   0.00118  -0.0439  0.4809  0.4885  -0.9107   0.0000   0.0000   0.0000   0.3523
   1.600   0.4374   0.00597   0.00122  -0.0441  0.4776  0.4891  -0.9261   0.0000   0.0000   0.0000   0.3468
   1.800   0.4608   0.00602   0.00127  -0.0443  0.4740  0.4898  -0.9425   0.0000   0.0000   0.0000   0.3419
   2.000   0.4841   0.00609   0.00134  -0.0444  0.4705  0.4903  -0.9599   0.0000   0.0000   0.0000   0.3374
   2.200   0.5074   0.00616   0.00142  -0.0446  0.4673  0.4906  -0.9771   0.0000   0.0000   0.0000   0.3333
   2.400   0.5308   0.00620   0.00147  -0.0448  0.4655  0.4909  -0.9947   0.0000   0.0000   0.0000   0.3296
   2.600   0.5543   0.00620   0.00148  -0.0450  0.4653  0.4910  -1.0127   0.0000   0.0000   0.0000   0.3262
   2.800   0.5779   0.00620   0.00148  -0.0452  0.4651  0.4912  -1.0310   0.0000   0.0000   0.0000   0.3230
   3.000   0.6014   0.00619   0.00148  -0.0454  0.4648  0.4923  -1.0511   0.0000   0.0000   0.0000   0.3201
   3.200   0.6248   0.00617   0.00148  -0.0456  0.4644  0.4945  -1.0729   0.0000   0.0000   0.0000   0.3174
   3.400   0.6483   0.00615   0.00148  -0.0458  0.4638  0.4971  -1.0954   0.0000   0.0000   0.0000   0.3149
   3.600   0.6717   0.00614   0.00148  -0.0459  0.4631  0.5001  -1.1202   0.0000   0.0000   0.0000   0.3125
   3.800   0.6952   0.00614   0.00149  -0.0461  0.4620  0.5030  -1.1458   0.0000   0.0000   0.0000   0.3103
   4.000   0.7185   0.00614   0.00151  -0.0463  0.4606  0.5055  -1.1747   0.0000   0.0000   0.0000   0.3082
   4.200   0.7419   0.00614   0.00154  -0.0465  0.4591  0.5076  -1.2043   0.0000   0.0000   0.0000   0.3063
   4.400   0.7652   0.00615   0.00157  -0.0467  0.4567  0.5097  -1.2379   0.0000   0.0000   0.0000   0.3044
   4.600   0.7884   0.00617   0.00159  -0.0469  0.4527  0.5120  -1.2716   0.0000   0.0000   0.0000   0.3026
   4.800   0.8114   0.00621   0.00162  -0.0470  0.4470  0.5143  -1.3077   0.0000   0.0000   0.0000   0.3009
   5.000   0.8342   0.00628   0.00165  -0.0472  0.4389  0.5168  -1.3466   0.0000   0.0000   0.0000   0.2993
   5.200   0.8569   0.00635   0.00171  -0.0473  0.4295  0.5193  -1.3914   0.0000   0.0000   0.0000   0.2977
   5.400   0.8797   0.00642   0.00177  -0.0474  0.4219  0.5218  -1.4378   0.0000   0.0000   0.0000   0.2962
   5.600   0.9027   0.00645   0.00184  -0.0476  0.4189  0.5243  -1.4867   0.0000   0.0000   0.0000   0.2948
   5.800   0.9258   0.00647   0.00189  -0.0478  0.4166  0.5267  -1.5436   0.0000   0.0000   0.0000   0.2935
   6.000   0.9487   0.00652   0.00196  -0.0479  0.4126  0.5291  -1.6009   0.0000   0.0000   0.0000   0.2922
   6.200   0.9708   0.00665   0.00204  -0.0480  0.3991  0.5314  -1.6652   0.0000   0.0000   0.0000   0.2909
   6.400   0.9922   0.00687   0.00219  -0.0480  0.3753  0.5338  -1.7341   0.0000   0.0000   0.0000   0.2895
   6.600   1.0148   0.00695   0.00228  -0.0481  0.3704  0.5364  -1.8060   0.0000   0.0000   0.0000   0.2883
   6.800   1.0363   0.00715   0.00242  -0.0481  0.3553  0.5389  -1.8890   0.0000   0.0000   0.0000   0.2871
   7.000   1.0568   0.00746   0.00263  -0.0480  0.3296  0.5411  -1.9782   0.0000   0.0000   0.0000   0.2859
   7.200   1.0760   0.00791   0.00292  -0.0478  0.3000  0.5428  -2.0656   0.0000   0.0000   0.0000   0.2846
   7.400   1.0953   0.00834   0.00324  -0.0475  0.2700  0.5441  -2.1681   0.0000   0.0000   0.0000   0.2834
   7.600   1.1144   0.00879   0.00355  -0.0473  0.2405  0.5450  -2.2770   0.0000   0.0000   0.0000   0.2821
   7.800   1.1323   0.00934   0.00393  -0.0469  0.2082  0.5457  -2.3842   0.0000   0.0000   0.0000   0.2809
   8.000   1.1520   0.00966   0.00419  -0.0467  0.1946  0.5517  -2.4987   0.0000   0.0000   0.0000   0.2798
   8.200   1.1705   0.01007   0.00452  -0.0464  0.1719  0.5643  -2.6522   0.0000   0.0000   0.0000   0.2786
   8.400   1.1900   0.01037   0.00480  -0.0462  0.1608  0.5764  -2.8400   0.0000   0.0000   0.0000   0.2775
   8.600   1.2075   0.01082   0.00518  -0.0458  0.1398  0.5855  -3.0228   0.0000   0.0000   0.0000   0.2763
   8.800   1.2269   0.01109   0.00545  -0.0455  0.1312  0.5942  -3.2195   0.0000   0.0000   0.0000   0.2752
   9.200   1.2611   0.01190   0.00621  -0.0445  0.1020  0.6441  -3.6022   0.0000   0.0000   0.0000   0.2729
   9.400   1.2741   0.01232   0.00673  -0.0435  0.0836  0.7480  -3.7775   0.0000   0.0000   0.0000   0.2714
   9.600   1.2972   0.01232   0.00718  -0.0443  0.0741  1.0000  -4.0087   0.0000   0.0000   0.0000   0.2711
   9.800   1.3119   0.01288   0.00765  -0.0435  0.0638  1.0000  -4.2011   0.0000   0.0000   0.0000   0.2698
  10.000   1.3289   0.01326   0.00800  -0.0429  0.0560  1.0000  -4.4098   0.0000   0.0000   0.0000   0.2687
  10.200   1.3449   0.01367   0.00839  -0.0423  0.0518  1.0000  -4.6177   0.0000   0.0000   0.0000   0.2675
  10.400   1.3579   0.01425   0.00892  -0.0413  0.0452  1.0000  -4.8112   0.0000   0.0000   0.0000   0.2662
  10.600   1.3716   0.01474   0.00938  -0.0404  0.0374  1.0000  -5.0116   0.0000   0.0000   0.0000   0.2649
  10.800   1.3859   0.01516   0.00980  -0.0396  0.0352  1.0000  -5.2206   0.0000   0.0000   0.0000   0.2637
  11.000   1.3964   0.01575   0.01041  -0.0383  0.0316  1.0000  -5.4089   0.0000   0.0000   0.0000   0.2622
  11.200   1.3998   0.01643   0.01108  -0.0359  0.0281  1.0000  -5.5575   0.0000   0.0000   0.0000   0.2601
  11.400   1.4032   0.01720   0.01185  -0.0340  0.0245  1.0000  -5.7058   0.0000   0.0000   0.0000   0.2583
  11.600   1.4091   0.01806   0.01274  -0.0328  0.0213  1.0000  -5.8685   0.0000   0.0000   0.0000   0.2570
  11.800   1.4167   0.01896   0.01367  -0.0320  0.0209  1.0000  -6.0455   0.0000   0.0000   0.0000   0.2560
  12.000   1.4242   0.01999   0.01472  -0.0314  0.0201  1.0000  -6.2223   0.0000   0.0000   0.0000   0.2550
  12.200   1.4301   0.02125   0.01600  -0.0310  0.0190  1.0000  -6.3895   0.0000   0.0000   0.0000   0.2543
  12.400   1.4348   0.02263   0.01739  -0.0305  0.0175  1.0000  -6.5502   0.0000   0.0000   0.0000   0.2535
  12.600   1.4381   0.02415   0.01892  -0.0300  0.0160  1.0000  -6.7011   0.0000   0.0000   0.0000   0.2527
  12.800   1.4409   0.02576   0.02055  -0.0296  0.0143  1.0000  -6.8488   0.0000   0.0000   0.0000   0.2519
  13.000   1.4442   0.02736   0.02218  -0.0292  0.0124  1.0000  -7.0048   0.0000   0.0000   0.0000   0.2512
  13.200   1.4490   0.02876   0.02361  -0.0287  0.0106  1.0000  -7.1786   0.0000   0.0000   0.0000   0.2504
  13.400   1.4512   0.03048   0.02537  -0.0284  0.0098  1.0000  -7.3332   0.0000   0.0000   0.0000   0.2498
  13.600   1.4546   0.03205   0.02699  -0.0281  0.0097  1.0000  -7.5048   0.0000   0.0000   0.0000   0.2491
  13.800   1.4603   0.03335   0.02832  -0.0277  0.0096  1.0000  -7.6978   0.0000   0.0000   0.0000   0.2484
  14.000   1.4657   0.03468   0.02968  -0.0273  0.0095  1.0000  -7.8905   0.0000   0.0000   0.0000   0.2476
  14.200   1.4699   0.03615   0.03119  -0.0270  0.0093  1.0000  -8.0735   0.0000   0.0000   0.0000   0.2469
  14.400   1.4653   0.03867   0.03376  -0.0269  0.0090  1.0000  -8.1820   0.0000   0.0000   0.0000   0.2465
  14.600   1.4673   0.04038   0.03550  -0.0266  0.0086  1.0000  -8.3484   0.0000   0.0000   0.0000   0.2458
  14.800   1.4695   0.04206   0.03718  -0.0263  0.0080  1.0000  -8.5174   0.0000   0.0000   0.0000   0.2452
  15.000   1.4709   0.04385   0.03898  -0.0260  0.0073  1.0000  -8.6807   0.0000   0.0000   0.0000   0.2445


