xflr5 v6.61

 Calculated polar for: EPPLER 715 AIRFOIL

 1 1 Reynolds number fixed          Mach number fixed         

 xtrf =   1.000 (top)        1.000 (bottom)
 Mach =   0.000     Re =     0.500 e 6     Ncrit =   9.000

  alpha     CL        CD       CDp       Cm    Top Xtr Bot Xtr   Cpmin    Chinge    XCp    
 ------- -------- --------- --------- -------- ------- ------- -------- --------- ---------
  -9.800  -0.7754   0.02579   0.02014  -0.0479  0.6511  0.0099  -6.7256   0.0000   0.0000   0.0000   0.1770
  -9.600  -0.7649   0.02411   0.01830  -0.0472  0.6470  0.0101  -6.6131   0.0000   0.0000   0.0000   0.1772
  -9.400  -0.7513   0.02289   0.01697  -0.0466  0.6425  0.0103  -6.4528   0.0000   0.0000   0.0000   0.1770
  -9.200  -0.7358   0.02198   0.01596  -0.0462  0.6379  0.0105  -6.2636   0.0000   0.0000   0.0000   0.1764
  -9.000  -0.7189   0.02125   0.01515  -0.0459  0.6330  0.0108  -6.0579   0.0000   0.0000   0.0000   0.1756
  -8.800  -0.7011   0.02063   0.01437  -0.0456  0.6275  0.0111  -5.8478   0.0000   0.0000   0.0000   0.1745
  -8.600  -0.6829   0.02005   0.01371  -0.0453  0.6214  0.0114  -5.6425   0.0000   0.0000   0.0000   0.1733
  -8.400  -0.6642   0.01952   0.01310  -0.0451  0.6152  0.0119  -5.4418   0.0000   0.0000   0.0000   0.1720
  -8.200  -0.6450   0.01901   0.01254  -0.0448  0.6120  0.0124  -5.2408   0.0000   0.0000   0.0000   0.1704
  -8.000  -0.6248   0.01860   0.01208  -0.0447  0.6110  0.0129  -5.0302   0.0000   0.0000   0.0000   0.1686
  -7.800  -0.6073   0.01769   0.01107  -0.0442  0.6099  0.0137  -4.8779   0.0000   0.0000   0.0000   0.1674
  -7.600  -0.5958   0.01564   0.00871  -0.0429  0.6087  0.0173  -4.8773   0.0000   0.0000   0.0000   0.1683
  -7.400  -0.5763   0.01502   0.00808  -0.0426  0.6070  0.0210  -4.7091   0.0000   0.0000   0.0000   0.1665
  -7.200  -0.5554   0.01464   0.00767  -0.0425  0.6051  0.0243  -4.5267   0.0000   0.0000   0.0000   0.1640
  -7.000  -0.5339   0.01438   0.00737  -0.0424  0.6029  0.0267  -4.3258   0.0000   0.0000   0.0000   0.1612
  -6.800  -0.5117   0.01429   0.00726  -0.0424  0.6007  0.0278  -4.1035   0.0000   0.0000   0.0000   0.1577
  -6.600  -0.4930   0.01344   0.00638  -0.0420  0.5987  0.0391  -3.9618   0.0000   0.0000   0.0000   0.1555
  -6.400  -0.4716   0.01315   0.00609  -0.0420  0.5968  0.0453  -3.7613   0.0000   0.0000   0.0000   0.1517
  -6.200  -0.4506   0.01275   0.00568  -0.0418  0.5948  0.0576  -3.5740   0.0000   0.0000   0.0000   0.1479
  -6.000  -0.4295   0.01240   0.00540  -0.0418  0.5928  0.0706  -3.3793   0.0000   0.0000   0.0000   0.1435
  -5.800  -0.4088   0.01195   0.00506  -0.0417  0.5908  0.0949  -3.1922   0.0000   0.0000   0.0000   0.1387
  -5.600  -0.3877   0.01158   0.00478  -0.0417  0.5888  0.1190  -3.0035   0.0000   0.0000   0.0000   0.1333
  -5.400  -0.3662   0.01128   0.00455  -0.0416  0.5867  0.1435  -2.8152   0.0000   0.0000   0.0000   0.1270
  -5.200  -0.3448   0.01098   0.00427  -0.0416  0.5845  0.1698  -2.6304   0.0000   0.0000   0.0000   0.1199
  -5.000  -0.3236   0.01063   0.00405  -0.0416  0.5822  0.2041  -2.4506   0.0000   0.0000   0.0000   0.1119
  -4.800  -0.3024   0.01029   0.00386  -0.0416  0.5798  0.2436  -2.2746   0.0000   0.0000   0.0000   0.1028
  -4.600  -0.2810   0.01000   0.00371  -0.0416  0.5771  0.2838  -2.1018   0.0000   0.0000   0.0000   0.0923
  -4.400  -0.2594   0.00979   0.00362  -0.0416  0.5741  0.3218  -1.9318   0.0000   0.0000   0.0000   0.0798
  -4.200  -0.2372   0.00971   0.00360  -0.0416  0.5708  0.3521  -1.7640   0.0000   0.0000   0.0000   0.0645
  -4.000  -0.2150   0.00971   0.00369  -0.0416  0.5671  0.3815  -1.6001   0.0000   0.0000   0.0000   0.0459
  -3.800  -0.1926   0.00982   0.00388  -0.0416  0.5630  0.4058  -1.4408   0.0000   0.0000   0.0000   0.0227
  -3.600  -0.1698   0.00986   0.00397  -0.0416  0.5620  0.4249  -1.2834   0.0000   0.0000   0.0000  -0.0070
  -3.400  -0.1465   0.00990   0.00397  -0.0417  0.5615  0.4345  -1.1295   0.0000   0.0000   0.0000  -0.0474
  -3.200  -0.1231   0.00995   0.00398  -0.0418  0.5609  0.4413  -1.0305   0.0000   0.0000   0.0000  -0.1033
  -3.000  -0.1003   0.00989   0.00393  -0.0418  0.5602  0.4537  -0.9469   0.0000   0.0000   0.0000  -0.1822
  -2.800  -0.0773   0.00992   0.00398  -0.0418  0.5594  0.4625  -0.8710   0.0000   0.0000   0.0000  -0.3092
  -2.600  -0.0542   0.00998   0.00404  -0.0418  0.5585  0.4705  -0.7975   0.0000   0.0000   0.0000  -0.5463
  -2.400  -0.0309   0.01003   0.00406  -0.0419  0.5574  0.4764  -0.7418   0.0000   0.0000   0.0000  -1.1426
  -2.200  -0.0077   0.01008   0.00409  -0.0419  0.5560  0.4816  -0.6883   0.0000   0.0000   0.0000  -5.3590
  -2.000   0.0156   0.01016   0.00414  -0.0420  0.5545  0.4857  -0.6376   0.0000   0.0000   0.0000   2.9994
  -1.800   0.0389   0.01023   0.00419  -0.0421  0.5531  0.4882  -0.6489   0.0000   0.0000   0.0000   1.3519
  -1.600   0.0622   0.01035   0.00428  -0.0421  0.5518  0.4901  -0.6636   0.0000   0.0000   0.0000   0.9384
  -1.400   0.0855   0.01044   0.00436  -0.0422  0.5504  0.4917  -0.6784   0.0000   0.0000   0.0000   0.7505
  -1.200   0.1084   0.01026   0.00414  -0.0424  0.5491  0.4991  -0.6928   0.0000   0.0000   0.0000   0.6452
  -1.000   0.1313   0.01020   0.00408  -0.0425  0.5477  0.5059  -0.7074   0.0000   0.0000   0.0000   0.5761
  -0.800   0.1543   0.01020   0.00409  -0.0426  0.5463  0.5116  -0.7219   0.0000   0.0000   0.0000   0.5273
  -0.600   0.1772   0.01022   0.00413  -0.0427  0.5449  0.5164  -0.7365   0.0000   0.0000   0.0000   0.4911
  -0.400   0.2003   0.01026   0.00417  -0.0428  0.5435  0.5204  -0.7512   0.0000   0.0000   0.0000   0.4631
  -0.200   0.2233   0.01030   0.00420  -0.0429  0.5420  0.5239  -0.7659   0.0000   0.0000   0.0000   0.4409
   0.000   0.2464   0.01032   0.00422  -0.0430  0.5406  0.5267  -0.7807   0.0000   0.0000   0.0000   0.4230
   0.200   0.2695   0.01035   0.00424  -0.0431  0.5392  0.5295  -0.7954   0.0000   0.0000   0.0000   0.4081
   0.400   0.2926   0.01039   0.00427  -0.0432  0.5377  0.5327  -0.8102   0.0000   0.0000   0.0000   0.3955
   0.600   0.3157   0.01043   0.00431  -0.0433  0.5362  0.5357  -0.8250   0.0000   0.0000   0.0000   0.3848
   0.800   0.3387   0.01048   0.00435  -0.0434  0.5347  0.5383  -0.8398   0.0000   0.0000   0.0000   0.3755
   1.000   0.3618   0.01053   0.00439  -0.0436  0.5331  0.5406  -0.8561   0.0000   0.0000   0.0000   0.3673
   1.200   0.3848   0.01057   0.00443  -0.0437  0.5313  0.5424  -0.8730   0.0000   0.0000   0.0000   0.3602
   1.400   0.4079   0.01061   0.00445  -0.0438  0.5291  0.5437  -0.8901   0.0000   0.0000   0.0000   0.3538
   1.600   0.4308   0.01068   0.00450  -0.0439  0.5264  0.5447  -0.9070   0.0000   0.0000   0.0000   0.3481
   1.800   0.4537   0.01079   0.00461  -0.0440  0.5235  0.5455  -0.9236   0.0000   0.0000   0.0000   0.3431
   2.000   0.4764   0.01096   0.00478  -0.0442  0.5204  0.5470  -0.9397   0.0000   0.0000   0.0000   0.3386
   2.200   0.4984   0.01123   0.00507  -0.0444  0.5163  0.5518  -0.9545   0.0000   0.0000   0.0000   0.3347
   2.400   0.5202   0.01156   0.00546  -0.0446  0.5130  0.5573  -0.9706   0.0000   0.0000   0.0000   0.3312
   2.600   0.5433   0.01148   0.00541  -0.0447  0.5125  0.5629  -0.9902   0.0000   0.0000   0.0000   0.3276
   2.800   0.5665   0.01140   0.00536  -0.0448  0.5118  0.5674  -1.0099   0.0000   0.0000   0.0000   0.3242
   3.000   0.5896   0.01133   0.00532  -0.0449  0.5110  0.5709  -1.0316   0.0000   0.0000   0.0000   0.3211
   3.200   0.6126   0.01129   0.00532  -0.0451  0.5100  0.5740  -1.0536   0.0000   0.0000   0.0000   0.3183
   3.400   0.6356   0.01124   0.00531  -0.0452  0.5088  0.5769  -1.0764   0.0000   0.0000   0.0000   0.3156
   3.600   0.6586   0.01119   0.00529  -0.0453  0.5072  0.5797  -1.1016   0.0000   0.0000   0.0000   0.3131
   3.800   0.6816   0.01116   0.00529  -0.0454  0.5055  0.5824  -1.1270   0.0000   0.0000   0.0000   0.3107
   4.000   0.7046   0.01114   0.00530  -0.0455  0.5035  0.5850  -1.1556   0.0000   0.0000   0.0000   0.3085
   4.200   0.7275   0.01110   0.00529  -0.0456  0.5012  0.5876  -1.1845   0.0000   0.0000   0.0000   0.3064
   4.400   0.7505   0.01107   0.00528  -0.0457  0.4986  0.5901  -1.2174   0.0000   0.0000   0.0000   0.3044
   4.600   0.7735   0.01104   0.00529  -0.0458  0.4959  0.5926  -1.2509   0.0000   0.0000   0.0000   0.3025
   4.800   0.7965   0.01099   0.00526  -0.0459  0.4930  0.5949  -1.2860   0.0000   0.0000   0.0000   0.3007
   5.000   0.8195   0.01095   0.00523  -0.0460  0.4901  0.5971  -1.3253   0.0000   0.0000   0.0000   0.2990
   5.200   0.8425   0.01089   0.00517  -0.0461  0.4869  0.5992  -1.3680   0.0000   0.0000   0.0000   0.2973
   5.600   0.8880   0.01081   0.00513  -0.0462  0.4803  0.6098  -1.4613   0.0000   0.0000   0.0000   0.2942
   5.800   0.9101   0.01080   0.00516  -0.0462  0.4753  0.6208  -1.5150   0.0000   0.0000   0.0000   0.2927
   6.000   0.9316   0.01102   0.00543  -0.0462  0.4678  0.6308  -1.5696   0.0000   0.0000   0.0000   0.2913
   6.200   0.9538   0.01101   0.00551  -0.0462  0.4647  0.6409  -1.6274   0.0000   0.0000   0.0000   0.2900
   6.400   0.9765   0.01087   0.00549  -0.0462  0.4629  0.6524  -1.6985   0.0000   0.0000   0.0000   0.2886
   6.600   0.9984   0.01073   0.00551  -0.0461  0.4607  0.6821  -1.7691   0.0000   0.0000   0.0000   0.2873
   6.800   1.0184   0.01044   0.00552  -0.0456  0.4570  0.7582  -1.8398   0.0000   0.0000   0.0000   0.2856
   7.000   1.0552   0.00995   0.00548  -0.0484  0.4506  1.0000  -1.9631   0.0000   0.0000   0.0000   0.2865
   7.200   1.0775   0.00993   0.00547  -0.0484  0.4441  1.0000  -2.0578   0.0000   0.0000   0.0000   0.2852
   7.400   1.0993   0.00992   0.00544  -0.0483  0.4349  1.0000  -2.1629   0.0000   0.0000   0.0000   0.2840
   7.600   1.1200   0.01002   0.00547  -0.0481  0.4226  1.0000  -2.2770   0.0000   0.0000   0.0000   0.2827
   7.800   1.1417   0.01012   0.00562  -0.0481  0.4166  1.0000  -2.3953   0.0000   0.0000   0.0000   0.2816
   8.000   1.1634   0.01020   0.00574  -0.0480  0.4078  1.0000  -2.5158   0.0000   0.0000   0.0000   0.2805
   8.200   1.1833   0.01035   0.00580  -0.0477  0.3880  1.0000  -2.6785   0.0000   0.0000   0.0000   0.2793
   8.400   1.2022   0.01063   0.00601  -0.0474  0.3670  1.0000  -2.8640   0.0000   0.0000   0.0000   0.2780
   8.600   1.2196   0.01106   0.00629  -0.0468  0.3400  1.0000  -3.0466   0.0000   0.0000   0.0000   0.2767
   8.800   1.2357   0.01159   0.00670  -0.0462  0.3105  1.0000  -3.2268   0.0000   0.0000   0.0000   0.2754
   9.000   1.2492   0.01235   0.00727  -0.0453  0.2773  1.0000  -3.3975   0.0000   0.0000   0.0000   0.2741
   9.200   1.2612   0.01320   0.00795  -0.0443  0.2454  1.0000  -3.5629   0.0000   0.0000   0.0000   0.2726
   9.400   1.2741   0.01394   0.00856  -0.0434  0.2217  1.0000  -3.7362   0.0000   0.0000   0.0000   0.2713
   9.600   1.2867   0.01466   0.00921  -0.0425  0.2006  1.0000  -3.9105   0.0000   0.0000   0.0000   0.2699
   9.800   1.2964   0.01554   0.00995  -0.0413  0.1798  1.0000  -4.0720   0.0000   0.0000   0.0000   0.2684
  10.000   1.3078   0.01624   0.01063  -0.0402  0.1636  1.0000  -4.2448   0.0000   0.0000   0.0000   0.2670
  10.200   1.3141   0.01719   0.01146  -0.0387  0.1471  1.0000  -4.3927   0.0000   0.0000   0.0000   0.2654
  10.400   1.3208   0.01801   0.01226  -0.0371  0.1338  1.0000  -4.5440   0.0000   0.0000   0.0000   0.2637
  10.600   1.3210   0.01902   0.01323  -0.0349  0.1233  1.0000  -4.6603   0.0000   0.0000   0.0000   0.2617
  10.800   1.3171   0.02055   0.01470  -0.0332  0.1113  1.0000  -4.7505   0.0000   0.0000   0.0000   0.2601
  11.000   1.3197   0.02193   0.01611  -0.0324  0.1030  1.0000  -4.8778   0.0000   0.0000   0.0000   0.2591
  11.200   1.3193   0.02372   0.01788  -0.0317  0.0946  1.0000  -4.9864   0.0000   0.0000   0.0000   0.2583
  11.400   1.3161   0.02582   0.01992  -0.0312  0.0850  1.0000  -5.0773   0.0000   0.0000   0.0000   0.2575
  11.600   1.3185   0.02749   0.02162  -0.0308  0.0782  1.0000  -5.2031   0.0000   0.0000   0.0000   0.2567
  11.800   1.3198   0.02924   0.02347  -0.0303  0.0727  1.0000  -5.3239   0.0000   0.0000   0.0000   0.2560
  12.000   1.3169   0.03138   0.02558  -0.0298  0.0665  1.0000  -5.4178   0.0000   0.0000   0.0000   0.2553
  12.200   1.3121   0.03371   0.02788  -0.0293  0.0589  1.0000  -5.4970   0.0000   0.0000   0.0000   0.2546
  12.400   1.3151   0.03529   0.02951  -0.0288  0.0552  1.0000  -5.6299   0.0000   0.0000   0.0000   0.2538
  12.600   1.3168   0.03700   0.03124  -0.0284  0.0514  1.0000  -5.7562   0.0000   0.0000   0.0000   0.2530
  12.800   1.3123   0.03942   0.03366  -0.0282  0.0477  1.0000  -5.8395   0.0000   0.0000   0.0000   0.2525
  13.000   1.3078   0.04179   0.03600  -0.0278  0.0428  1.0000  -5.9210   0.0000   0.0000   0.0000   0.2519
  13.200   1.3008   0.04439   0.03862  -0.0273  0.0371  1.0000  -5.9756   0.0000   0.0000   0.0000   0.2512
  13.400   1.3071   0.04574   0.04003  -0.0271  0.0361  1.0000  -6.1386   0.0000   0.0000   0.0000   0.2506
  13.600   1.3104   0.04741   0.04176  -0.0269  0.0346  1.0000  -6.2789   0.0000   0.0000   0.0000   0.2500
  13.800   1.3080   0.04983   0.04424  -0.0270  0.0330  1.0000  -6.3754   0.0000   0.0000   0.0000   0.2497
  14.000   1.3083   0.05196   0.04639  -0.0270  0.0309  1.0000  -6.4916   0.0000   0.0000   0.0000   0.2493
  14.200   1.3082   0.05416   0.04859  -0.0269  0.0286  1.0000  -6.6035   0.0000   0.0000   0.0000   0.2488
  14.400   1.3063   0.05662   0.05106  -0.0269  0.0260  1.0000  -6.6972   0.0000   0.0000   0.0000   0.2485
  14.600   1.3001   0.05962   0.05413  -0.0270  0.0233  1.0000  -6.7462   0.0000   0.0000   0.0000   0.2482
  14.800   1.2879   0.06349   0.05815  -0.0273  0.0214  1.0000  -6.7395   0.0000   0.0000   0.0000   0.2482
  15.000   1.2907   0.06568   0.06039  -0.0277  0.0211  1.0000  -6.8771   0.0000   0.0000   0.0000   0.2481


