xflr5 v6.61

 Calculated polar for: EPPLER 715 AIRFOIL

 1 1 Reynolds number fixed          Mach number fixed         

 xtrf =   1.000 (top)        1.000 (bottom)
 Mach =   0.000     Re =     1.000 e 6     Ncrit =   9.000

  alpha     CL        CD       CDp       Cm    Top Xtr Bot Xtr   Cpmin    Chinge    XCp    
 ------- -------- --------- --------- -------- ------- ------- -------- --------- ---------
 -10.000  -0.8423   0.01845   0.01275  -0.0440  0.6091  0.0058  -8.0029   0.0000   0.0000   0.0000   0.1865
  -9.800  -0.8251   0.01773   0.01194  -0.0436  0.6070  0.0060  -7.7739   0.0000   0.0000   0.0000   0.1860
  -9.600  -0.8073   0.01707   0.01120  -0.0433  0.6045  0.0061  -7.5414   0.0000   0.0000   0.0000   0.1855
  -9.400  -0.7889   0.01646   0.01050  -0.0429  0.6015  0.0063  -7.3062   0.0000   0.0000   0.0000   0.1849
  -9.200  -0.7701   0.01590   0.00986  -0.0426  0.5982  0.0065  -7.0685   0.0000   0.0000   0.0000   0.1841
  -9.000  -0.7507   0.01540   0.00929  -0.0424  0.5947  0.0068  -6.8257   0.0000   0.0000   0.0000   0.1832
  -8.800  -0.7310   0.01495   0.00876  -0.0421  0.5909  0.0071  -6.5806   0.0000   0.0000   0.0000   0.1822
  -8.600  -0.7109   0.01453   0.00823  -0.0419  0.5868  0.0075  -6.3354   0.0000   0.0000   0.0000   0.1810
  -8.400  -0.6906   0.01414   0.00777  -0.0417  0.5821  0.0080  -6.0960   0.0000   0.0000   0.0000   0.1797
  -8.200  -0.6700   0.01378   0.00733  -0.0415  0.5769  0.0085  -5.8602   0.0000   0.0000   0.0000   0.1782
  -8.000  -0.6492   0.01346   0.00695  -0.0414  0.5713  0.0091  -5.6234   0.0000   0.0000   0.0000   0.1766
  -7.800  -0.6279   0.01321   0.00665  -0.0413  0.5659  0.0096  -5.3804   0.0000   0.0000   0.0000   0.1747
  -7.600  -0.6076   0.01277   0.00617  -0.0411  0.5623  0.0108  -5.1635   0.0000   0.0000   0.0000   0.1729
  -7.400  -0.5866   0.01243   0.00587  -0.0410  0.5620  0.0120  -4.9156   0.0000   0.0000   0.0000   0.1707
  -7.200  -0.5647   0.01226   0.00571  -0.0411  0.5616  0.0131  -4.6629   0.0000   0.0000   0.0000   0.1680
  -7.000  -0.5441   0.01172   0.00510  -0.0407  0.5611  0.0200  -4.5040   0.0000   0.0000   0.0000   0.1659
  -6.800  -0.5226   0.01141   0.00483  -0.0407  0.5606  0.0243  -4.2925   0.0000   0.0000   0.0000   0.1631
  -6.600  -0.5005   0.01120   0.00462  -0.0407  0.5601  0.0268  -4.0740   0.0000   0.0000   0.0000   0.1597
  -6.400  -0.4781   0.01107   0.00445  -0.0407  0.5594  0.0277  -3.8535   0.0000   0.0000   0.0000   0.1559
  -6.200  -0.4562   0.01079   0.00418  -0.0406  0.5587  0.0366  -3.6530   0.0000   0.0000   0.0000   0.1520
  -6.000  -0.4345   0.01049   0.00395  -0.0406  0.5579  0.0444  -3.4484   0.0000   0.0000   0.0000   0.1476
  -5.800  -0.4123   0.01029   0.00375  -0.0406  0.5570  0.0538  -3.2448   0.0000   0.0000   0.0000   0.1426
  -5.600  -0.3907   0.00997   0.00354  -0.0406  0.5561  0.0686  -3.0477   0.0000   0.0000   0.0000   0.1372
  -5.400  -0.3690   0.00967   0.00333  -0.0405  0.5551  0.0895  -2.8543   0.0000   0.0000   0.0000   0.1311
  -5.200  -0.3470   0.00941   0.00311  -0.0406  0.5539  0.1103  -2.6634   0.0000   0.0000   0.0000   0.1240
  -5.000  -0.3250   0.00914   0.00294  -0.0406  0.5528  0.1298  -2.4771   0.0000   0.0000   0.0000   0.1160
  -4.800  -0.3031   0.00887   0.00276  -0.0406  0.5515  0.1561  -2.2955   0.0000   0.0000   0.0000   0.1067
  -4.600  -0.2807   0.00867   0.00262  -0.0406  0.5502  0.1776  -2.1160   0.0000   0.0000   0.0000   0.0957
  -4.400  -0.2587   0.00841   0.00247  -0.0407  0.5488  0.2053  -1.9428   0.0000   0.0000   0.0000   0.0831
  -4.200  -0.2368   0.00810   0.00231  -0.0407  0.5473  0.2443  -1.7750   0.0000   0.0000   0.0000   0.0682
  -4.000  -0.2148   0.00784   0.00217  -0.0407  0.5457  0.2814  -1.6110   0.0000   0.0000   0.0000   0.0501
  -3.800  -0.1923   0.00767   0.00208  -0.0408  0.5440  0.3106  -1.4497   0.0000   0.0000   0.0000   0.0273
  -3.600  -0.1698   0.00751   0.00200  -0.0408  0.5422  0.3373  -1.2931   0.0000   0.0000   0.0000  -0.0016
  -3.400  -0.1474   0.00736   0.00196  -0.0408  0.5403  0.3720  -1.1416   0.0000   0.0000   0.0000  -0.0391
  -3.200  -0.1244   0.00731   0.00193  -0.0409  0.5382  0.3894  -1.0341   0.0000   0.0000   0.0000  -0.0920
  -3.000  -0.1016   0.00725   0.00191  -0.0410  0.5358  0.4119  -0.9502   0.0000   0.0000   0.0000  -0.1679
  -2.800  -0.0786   0.00724   0.00193  -0.0410  0.5329  0.4276  -0.8745   0.0000   0.0000   0.0000  -0.2895
  -2.600  -0.0552   0.00728   0.00193  -0.0411  0.5293  0.4345  -0.8010   0.0000   0.0000   0.0000  -0.5167
  -2.400  -0.0319   0.00734   0.00195  -0.0412  0.5254  0.4372  -0.7443   0.0000   0.0000   0.0000  -1.0792
  -2.200  -0.0085   0.00741   0.00199  -0.0414  0.5216  0.4403  -0.6908   0.0000   0.0000   0.0000  -4.7320
  -2.000   0.0145   0.00742   0.00202  -0.0415  0.5183  0.4517  -0.6424   0.0000   0.0000   0.0000   3.1764
  -1.800   0.0375   0.00749   0.00211  -0.0416  0.5151  0.4593  -0.6566   0.0000   0.0000   0.0000   1.3779
  -1.600   0.0607   0.00755   0.00221  -0.0417  0.5132  0.4665  -0.6711   0.0000   0.0000   0.0000   0.9475
  -1.400   0.0841   0.00756   0.00222  -0.0418  0.5130  0.4721  -0.6862   0.0000   0.0000   0.0000   0.7532
  -1.200   0.1075   0.00757   0.00222  -0.0419  0.5128  0.4761  -0.7015   0.0000   0.0000   0.0000   0.6434
  -1.000   0.1310   0.00759   0.00224  -0.0421  0.5125  0.4799  -0.7168   0.0000   0.0000   0.0000   0.5729
  -0.800   0.1545   0.00761   0.00225  -0.0422  0.5123  0.4828  -0.7321   0.0000   0.0000   0.0000   0.5239
  -0.600   0.1780   0.00763   0.00225  -0.0424  0.5120  0.4847  -0.7474   0.0000   0.0000   0.0000   0.4878
  -0.400   0.2015   0.00765   0.00227  -0.0425  0.5117  0.4865  -0.7628   0.0000   0.0000   0.0000   0.4602
  -0.200   0.2250   0.00769   0.00229  -0.0427  0.5113  0.4881  -0.7781   0.0000   0.0000   0.0000   0.4383
   0.000   0.2485   0.00773   0.00233  -0.0428  0.5109  0.4893  -0.7935   0.0000   0.0000   0.0000   0.4205
   0.200   0.2719   0.00776   0.00237  -0.0429  0.5104  0.4901  -0.8090   0.0000   0.0000   0.0000   0.4058
   0.400   0.2954   0.00780   0.00240  -0.0431  0.5099  0.4907  -0.8244   0.0000   0.0000   0.0000   0.3934
   0.600   0.3188   0.00782   0.00242  -0.0433  0.5094  0.4910  -0.8398   0.0000   0.0000   0.0000   0.3829
   0.800   0.3422   0.00781   0.00241  -0.0434  0.5087  0.4925  -0.8553   0.0000   0.0000   0.0000   0.3739
   1.000   0.3655   0.00774   0.00233  -0.0436  0.5078  0.4983  -0.8707   0.0000   0.0000   0.0000   0.3660
   1.200   0.3887   0.00769   0.00229  -0.0437  0.5067  0.5046  -0.8863   0.0000   0.0000   0.0000   0.3590
   1.400   0.4119   0.00765   0.00228  -0.0439  0.5056  0.5109  -0.9019   0.0000   0.0000   0.0000   0.3528
   1.600   0.4352   0.00764   0.00230  -0.0440  0.5045  0.5157  -0.9192   0.0000   0.0000   0.0000   0.3473
   1.800   0.4584   0.00765   0.00233  -0.0442  0.5034  0.5192  -0.9366   0.0000   0.0000   0.0000   0.3423
   2.000   0.4817   0.00765   0.00235  -0.0443  0.5022  0.5219  -0.9540   0.0000   0.0000   0.0000   0.3377
   2.200   0.5050   0.00765   0.00236  -0.0445  0.5006  0.5243  -0.9716   0.0000   0.0000   0.0000   0.3336
   2.400   0.5283   0.00764   0.00236  -0.0446  0.4988  0.5266  -0.9892   0.0000   0.0000   0.0000   0.3298
   2.600   0.5516   0.00764   0.00236  -0.0448  0.4967  0.5287  -1.0070   0.0000   0.0000   0.0000   0.3263
   2.800   0.5748   0.00763   0.00237  -0.0449  0.4947  0.5310  -1.0264   0.0000   0.0000   0.0000   0.3231
   3.000   0.5981   0.00764   0.00238  -0.0451  0.4924  0.5332  -1.0463   0.0000   0.0000   0.0000   0.3201
   3.200   0.6212   0.00765   0.00240  -0.0452  0.4898  0.5352  -1.0684   0.0000   0.0000   0.0000   0.3173
   3.400   0.6443   0.00767   0.00241  -0.0453  0.4869  0.5368  -1.0907   0.0000   0.0000   0.0000   0.3147
   3.600   0.6674   0.00770   0.00242  -0.0455  0.4834  0.5381  -1.1153   0.0000   0.0000   0.0000   0.3123
   3.800   0.6903   0.00775   0.00247  -0.0456  0.4790  0.5393  -1.1404   0.0000   0.0000   0.0000   0.3100
   4.000   0.7131   0.00785   0.00255  -0.0457  0.4737  0.5404  -1.1686   0.0000   0.0000   0.0000   0.3079
   4.200   0.7357   0.00800   0.00271  -0.0458  0.4679  0.5413  -1.1969   0.0000   0.0000   0.0000   0.3059
   4.400   0.7587   0.00806   0.00281  -0.0460  0.4653  0.5422  -1.2300   0.0000   0.0000   0.0000   0.3040
   4.600   0.7820   0.00803   0.00280  -0.0462  0.4648  0.5430  -1.2639   0.0000   0.0000   0.0000   0.3022
   4.800   0.8053   0.00803   0.00282  -0.0463  0.4641  0.5437  -1.2997   0.0000   0.0000   0.0000   0.3005
   5.000   0.8285   0.00802   0.00284  -0.0465  0.4632  0.5444  -1.3392   0.0000   0.0000   0.0000   0.2989
   5.200   0.8517   0.00800   0.00285  -0.0467  0.4616  0.5449  -1.3837   0.0000   0.0000   0.0000   0.2973
   5.400   0.8749   0.00799   0.00287  -0.0468  0.4594  0.5454  -1.4307   0.0000   0.0000   0.0000   0.2959
   5.600   0.8981   0.00799   0.00289  -0.0470  0.4563  0.5458  -1.4787   0.0000   0.0000   0.0000   0.2944
   5.800   0.9211   0.00799   0.00291  -0.0471  0.4524  0.5481  -1.5355   0.0000   0.0000   0.0000   0.2931
   6.000   0.9439   0.00799   0.00294  -0.0472  0.4482  0.5534  -1.5925   0.0000   0.0000   0.0000   0.2917
   6.200   0.9664   0.00800   0.00296  -0.0473  0.4415  0.5605  -1.6555   0.0000   0.0000   0.0000   0.2904
   6.400   0.9884   0.00806   0.00302  -0.0473  0.4318  0.5685  -1.7255   0.0000   0.0000   0.0000   0.2891
   6.600   1.0103   0.00816   0.00313  -0.0474  0.4212  0.5759  -1.7960   0.0000   0.0000   0.0000   0.2879
   6.800   1.0329   0.00818   0.00322  -0.0475  0.4172  0.5822  -1.8787   0.0000   0.0000   0.0000   0.2867
   7.000   1.0554   0.00821   0.00331  -0.0476  0.4112  0.5882  -1.9722   0.0000   0.0000   0.0000   0.2856
   7.200   1.0774   0.00830   0.00340  -0.0476  0.4011  0.5942  -2.0661   0.0000   0.0000   0.0000   0.2844
   7.400   1.0981   0.00850   0.00356  -0.0475  0.3836  0.6000  -2.1712   0.0000   0.0000   0.0000   0.2832
   7.800   1.1370   0.00907   0.00403  -0.0470  0.3327  0.6436  -2.3937   0.0000   0.0000   0.0000   0.2808
   8.000   1.1552   0.00931   0.00434  -0.0466  0.3094  0.7006  -2.5042   0.0000   0.0000   0.0000   0.2795
   8.200   1.1798   0.00943   0.00486  -0.0477  0.2720  1.0000  -2.6846   0.0000   0.0000   0.0000   0.2794
   8.400   1.1961   0.01005   0.00531  -0.0472  0.2411  1.0000  -2.8579   0.0000   0.0000   0.0000   0.2781
   8.600   1.2121   0.01068   0.00579  -0.0466  0.2154  1.0000  -3.0332   0.0000   0.0000   0.0000   0.2768
   8.800   1.2300   0.01110   0.00615  -0.0462  0.1981  1.0000  -3.2222   0.0000   0.0000   0.0000   0.2756
   9.000   1.2450   0.01176   0.00666  -0.0455  0.1741  1.0000  -3.4004   0.0000   0.0000   0.0000   0.2743
   9.200   1.2624   0.01219   0.00704  -0.0450  0.1611  1.0000  -3.5943   0.0000   0.0000   0.0000   0.2731
   9.400   1.2763   0.01287   0.00759  -0.0442  0.1405  1.0000  -3.7742   0.0000   0.0000   0.0000   0.2718
   9.600   1.2927   0.01332   0.00801  -0.0436  0.1293  1.0000  -3.9705   0.0000   0.0000   0.0000   0.2706
   9.800   1.3044   0.01408   0.00864  -0.0425  0.1103  1.0000  -4.1449   0.0000   0.0000   0.0000   0.2692
  10.000   1.3185   0.01462   0.00914  -0.0417  0.0997  1.0000  -4.3362   0.0000   0.0000   0.0000   0.2680
  10.200   1.3282   0.01541   0.00983  -0.0404  0.0855  1.0000  -4.5048   0.0000   0.0000   0.0000   0.2664
  10.400   1.3406   0.01597   0.01037  -0.0394  0.0770  1.0000  -4.6923   0.0000   0.0000   0.0000   0.2651
  10.600   1.3484   0.01672   0.01106  -0.0379  0.0688  1.0000  -4.8564   0.0000   0.0000   0.0000   0.2635
  10.800   1.3497   0.01758   0.01188  -0.0355  0.0601  1.0000  -4.9843   0.0000   0.0000   0.0000   0.2614
  11.000   1.3545   0.01840   0.01274  -0.0340  0.0555  1.0000  -5.1328   0.0000   0.0000   0.0000   0.2598
  11.200   1.3586   0.01949   0.01384  -0.0329  0.0521  1.0000  -5.2766   0.0000   0.0000   0.0000   0.2586
  11.400   1.3607   0.02092   0.01531  -0.0321  0.0478  1.0000  -5.4074   0.0000   0.0000   0.0000   0.2575
  11.600   1.3624   0.02252   0.01690  -0.0315  0.0426  1.0000  -5.5353   0.0000   0.0000   0.0000   0.2567
  11.800   1.3658   0.02407   0.01848  -0.0310  0.0370  1.0000  -5.6741   0.0000   0.0000   0.0000   0.2559
  12.000   1.3725   0.02529   0.01975  -0.0306  0.0357  1.0000  -5.8385   0.0000   0.0000   0.0000   0.2551
  12.200   1.3750   0.02698   0.02146  -0.0303  0.0335  1.0000  -5.9755   0.0000   0.0000   0.0000   0.2544
  12.400   1.3765   0.02870   0.02316  -0.0298  0.0307  1.0000  -6.1063   0.0000   0.0000   0.0000   0.2537
  12.600   1.3759   0.03063   0.02508  -0.0293  0.0276  1.0000  -6.2229   0.0000   0.0000   0.0000   0.2529
  12.800   1.3744   0.03266   0.02713  -0.0289  0.0239  1.0000  -6.3312   0.0000   0.0000   0.0000   0.2522
  13.000   1.3755   0.03439   0.02891  -0.0283  0.0213  1.0000  -6.4559   0.0000   0.0000   0.0000   0.2514
  13.200   1.3817   0.03568   0.03025  -0.0280  0.0210  1.0000  -6.6270   0.0000   0.0000   0.0000   0.2507
  13.400   1.3844   0.03738   0.03200  -0.0278  0.0206  1.0000  -6.7731   0.0000   0.0000   0.0000   0.2501
  13.600   1.3844   0.03940   0.03407  -0.0276  0.0200  1.0000  -6.8984   0.0000   0.0000   0.0000   0.2496
  13.800   1.3871   0.04106   0.03577  -0.0273  0.0190  1.0000  -7.0450   0.0000   0.0000   0.0000   0.2489
  14.000   1.3893   0.04275   0.03748  -0.0270  0.0179  1.0000  -7.1883   0.0000   0.0000   0.0000   0.2482
  14.200   1.3904   0.04458   0.03932  -0.0267  0.0168  1.0000  -7.3234   0.0000   0.0000   0.0000   0.2476
  14.400   1.3901   0.04661   0.04137  -0.0265  0.0156  1.0000  -7.4471   0.0000   0.0000   0.0000   0.2471
  14.600   1.3831   0.04958   0.04438  -0.0267  0.0147  1.0000  -7.5157   0.0000   0.0000   0.0000   0.2468
  14.800   1.3837   0.05166   0.04649  -0.0266  0.0131  1.0000  -7.6507   0.0000   0.0000   0.0000   0.2464
  15.000   1.3840   0.05381   0.04869  -0.0265  0.0115  1.0000  -7.7791   0.0000   0.0000   0.0000   0.2459


