xflr5 v6.61

 Calculated polar for: EPPLER 715 AIRFOIL

 1 1 Reynolds number fixed          Mach number fixed         

 xtrf =   1.000 (top)        1.000 (bottom)
 Mach =   0.000     Re =     1.500 e 6     Ncrit =   9.000

  alpha     CL        CD       CDp       Cm    Top Xtr Bot Xtr   Cpmin    Chinge    XCp    
 ------- -------- --------- --------- -------- ------- ------- -------- --------- ---------
 -10.000  -0.8405   0.01846   0.01323  -0.0443  0.5908  0.0043  -7.9621   0.0000   0.0000   0.0000   0.1861
  -9.800  -0.8225   0.01788   0.01255  -0.0439  0.5855  0.0043  -7.7077   0.0000   0.0000   0.0000   0.1855
  -9.600  -0.8041   0.01733   0.01192  -0.0436  0.5789  0.0044  -7.4526   0.0000   0.0000   0.0000   0.1849
  -9.400  -0.7853   0.01682   0.01133  -0.0434  0.5721  0.0044  -7.1976   0.0000   0.0000   0.0000   0.1841
  -9.200  -0.7679   0.01607   0.01048  -0.0429  0.5658  0.0044  -6.9818   0.0000   0.0000   0.0000   0.1836
  -9.000  -0.7519   0.01506   0.00931  -0.0423  0.5623  0.0045  -6.8112   0.0000   0.0000   0.0000   0.1833
  -8.800  -0.7344   0.01420   0.00833  -0.0419  0.5620  0.0047  -6.6236   0.0000   0.0000   0.0000   0.1828
  -8.600  -0.7157   0.01350   0.00746  -0.0415  0.5615  0.0049  -6.4235   0.0000   0.0000   0.0000   0.1821
  -8.400  -0.6962   0.01290   0.00676  -0.0411  0.5610  0.0052  -6.2196   0.0000   0.0000   0.0000   0.1811
  -8.200  -0.6760   0.01238   0.00616  -0.0408  0.5603  0.0059  -6.0143   0.0000   0.0000   0.0000   0.1799
  -8.000  -0.6551   0.01199   0.00573  -0.0407  0.5594  0.0070  -5.7858   0.0000   0.0000   0.0000   0.1783
  -7.800  -0.6338   0.01167   0.00540  -0.0405  0.5584  0.0081  -5.5390   0.0000   0.0000   0.0000   0.1766
  -7.600  -0.6120   0.01142   0.00514  -0.0405  0.5573  0.0092  -5.2866   0.0000   0.0000   0.0000   0.1745
  -7.400  -0.5899   0.01123   0.00493  -0.0404  0.5561  0.0097  -5.0278   0.0000   0.0000   0.0000   0.1722
  -7.200  -0.5692   0.01082   0.00459  -0.0403  0.5548  0.0121  -4.7905   0.0000   0.0000   0.0000   0.1700
  -7.000  -0.5471   0.01065   0.00441  -0.0403  0.5535  0.0131  -4.5354   0.0000   0.0000   0.0000   0.1672
  -6.800  -0.5252   0.01038   0.00411  -0.0402  0.5520  0.0186  -4.3342   0.0000   0.0000   0.0000   0.1643
  -6.600  -0.5033   0.01012   0.00390  -0.0402  0.5505  0.0232  -4.1178   0.0000   0.0000   0.0000   0.1612
  -6.400  -0.4812   0.00993   0.00371  -0.0402  0.5489  0.0263  -3.8995   0.0000   0.0000   0.0000   0.1576
  -6.200  -0.4587   0.00979   0.00355  -0.0402  0.5473  0.0276  -3.6818   0.0000   0.0000   0.0000   0.1534
  -6.000  -0.4362   0.00962   0.00337  -0.0402  0.5457  0.0340  -3.4727   0.0000   0.0000   0.0000   0.1489
  -5.800  -0.4142   0.00938   0.00318  -0.0402  0.5440  0.0424  -3.2683   0.0000   0.0000   0.0000   0.1441
  -5.600  -0.3918   0.00921   0.00303  -0.0402  0.5423  0.0476  -3.0647   0.0000   0.0000   0.0000   0.1385
  -5.400  -0.3698   0.00898   0.00284  -0.0402  0.5404  0.0623  -2.8682   0.0000   0.0000   0.0000   0.1323
  -5.200  -0.3474   0.00879   0.00267  -0.0402  0.5384  0.0736  -2.6738   0.0000   0.0000   0.0000   0.1252
  -5.000  -0.3256   0.00850   0.00248  -0.0402  0.5363  0.0964  -2.4875   0.0000   0.0000   0.0000   0.1173
  -4.800  -0.3036   0.00826   0.00232  -0.0403  0.5339  0.1202  -2.3045   0.0000   0.0000   0.0000   0.1082
  -4.600  -0.2811   0.00809   0.00220  -0.0403  0.5314  0.1382  -2.1238   0.0000   0.0000   0.0000   0.0972
  -4.400  -0.2590   0.00786   0.00206  -0.0403  0.5288  0.1624  -1.9495   0.0000   0.0000   0.0000   0.0846
  -4.200  -0.2365   0.00769   0.00196  -0.0404  0.5261  0.1857  -1.7784   0.0000   0.0000   0.0000   0.0693
  -4.000  -0.2142   0.00749   0.00185  -0.0405  0.5233  0.2135  -1.6128   0.0000   0.0000   0.0000   0.0510
  -3.800  -0.1922   0.00725   0.00175  -0.0405  0.5204  0.2480  -1.4531   0.0000   0.0000   0.0000   0.0286
  -3.600  -0.1699   0.00707   0.00168  -0.0405  0.5173  0.2807  -1.2973   0.0000   0.0000   0.0000   0.0001
  -3.400  -0.1471   0.00700   0.00166  -0.0406  0.5137  0.3029  -1.1447   0.0000   0.0000   0.0000  -0.0382
  -3.200  -0.1246   0.00681   0.00159  -0.0407  0.5131  0.3343  -1.0351   0.0000   0.0000   0.0000  -0.0895
  -3.000  -0.1021   0.00662   0.00151  -0.0407  0.5129  0.3715  -0.9516   0.0000   0.0000   0.0000  -0.1637
  -2.800  -0.0789   0.00655   0.00147  -0.0408  0.5126  0.3864  -0.8760   0.0000   0.0000   0.0000  -0.2850
  -2.600  -0.0556   0.00648   0.00144  -0.0409  0.5124  0.4048  -0.8027   0.0000   0.0000   0.0000  -0.5080
  -2.400  -0.0326   0.00641   0.00146  -0.0410  0.5121  0.4244  -0.7457   0.0000   0.0000   0.0000  -1.0434
  -2.200  -0.0091   0.00640   0.00144  -0.0411  0.5118  0.4313  -0.6920   0.0000   0.0000   0.0000  -4.3886
  -2.000   0.0145   0.00639   0.00143  -0.0413  0.5114  0.4352  -0.6456   0.0000   0.0000   0.0000   3.1585
  -1.800   0.0381   0.00640   0.00142  -0.0414  0.5110  0.4376  -0.6609   0.0000   0.0000   0.0000   1.3561
  -1.600   0.0617   0.00641   0.00141  -0.0416  0.5105  0.4385  -0.6763   0.0000   0.0000   0.0000   0.9332
  -1.400   0.0852   0.00639   0.00139  -0.0417  0.5099  0.4445  -0.6916   0.0000   0.0000   0.0000   0.7454
  -1.200   0.1085   0.00635   0.00137  -0.0419  0.5093  0.4549  -0.7069   0.0000   0.0000   0.0000   0.6389
  -1.000   0.1319   0.00633   0.00137  -0.0420  0.5086  0.4619  -0.7222   0.0000   0.0000   0.0000   0.5700
  -0.800   0.1553   0.00632   0.00138  -0.0421  0.5079  0.4679  -0.7376   0.0000   0.0000   0.0000   0.5218
  -0.600   0.1788   0.00632   0.00140  -0.0423  0.5070  0.4730  -0.7530   0.0000   0.0000   0.0000   0.4862
  -0.400   0.2023   0.00632   0.00140  -0.0424  0.5062  0.4766  -0.7684   0.0000   0.0000   0.0000   0.4589
  -0.200   0.2258   0.00633   0.00141  -0.0426  0.5053  0.4792  -0.7839   0.0000   0.0000   0.0000   0.4372
   0.000   0.2494   0.00635   0.00142  -0.0428  0.5043  0.4819  -0.7994   0.0000   0.0000   0.0000   0.4197
   0.200   0.2729   0.00637   0.00144  -0.0429  0.5033  0.4843  -0.8149   0.0000   0.0000   0.0000   0.4051
   0.400   0.2965   0.00640   0.00146  -0.0431  0.5022  0.4863  -0.8305   0.0000   0.0000   0.0000   0.3928
   0.600   0.3200   0.00642   0.00148  -0.0433  0.5009  0.4877  -0.8461   0.0000   0.0000   0.0000   0.3824
   0.800   0.3435   0.00644   0.00149  -0.0434  0.4994  0.4886  -0.8618   0.0000   0.0000   0.0000   0.3734
   1.000   0.3670   0.00645   0.00150  -0.0436  0.4978  0.4893  -0.8775   0.0000   0.0000   0.0000   0.3655
   1.200   0.3905   0.00648   0.00152  -0.0438  0.4963  0.4898  -0.8932   0.0000   0.0000   0.0000   0.3585
   1.400   0.4140   0.00651   0.00155  -0.0439  0.4949  0.4903  -0.9088   0.0000   0.0000   0.0000   0.3524
   1.600   0.4374   0.00655   0.00159  -0.0441  0.4933  0.4908  -0.9244   0.0000   0.0000   0.0000   0.3469
   1.800   0.4608   0.00659   0.00162  -0.0443  0.4912  0.4911  -0.9418   0.0000   0.0000   0.0000   0.3419
   2.000   0.4841   0.00660   0.00162  -0.0444  0.4887  0.4933  -0.9594   0.0000   0.0000   0.0000   0.3374
   2.200   0.5072   0.00660   0.00160  -0.0446  0.4854  0.4975  -0.9768   0.0000   0.0000   0.0000   0.3333
   2.400   0.5304   0.00661   0.00161  -0.0447  0.4818  0.5009  -0.9942   0.0000   0.0000   0.0000   0.3296
   2.600   0.5535   0.00664   0.00163  -0.0449  0.4778  0.5041  -1.0116   0.0000   0.0000   0.0000   0.3262
   2.800   0.5765   0.00669   0.00168  -0.0450  0.4737  0.5071  -1.0295   0.0000   0.0000   0.0000   0.3230
   3.000   0.5995   0.00676   0.00176  -0.0452  0.4695  0.5102  -1.0488   0.0000   0.0000   0.0000   0.3201
   3.200   0.6225   0.00683   0.00186  -0.0453  0.4656  0.5140  -1.0701   0.0000   0.0000   0.0000   0.3173
   3.400   0.6459   0.00681   0.00187  -0.0455  0.4653  0.5176  -1.0927   0.0000   0.0000   0.0000   0.3148
   3.600   0.6693   0.00679   0.00187  -0.0457  0.4650  0.5205  -1.1175   0.0000   0.0000   0.0000   0.3124
   3.800   0.6927   0.00677   0.00188  -0.0459  0.4645  0.5227  -1.1431   0.0000   0.0000   0.0000   0.3102
   4.000   0.7161   0.00676   0.00189  -0.0460  0.4638  0.5246  -1.1721   0.0000   0.0000   0.0000   0.3081
   4.200   0.7394   0.00674   0.00190  -0.0462  0.4629  0.5264  -1.2016   0.0000   0.0000   0.0000   0.3061
   4.400   0.7628   0.00675   0.00195  -0.0464  0.4618  0.5281  -1.2351   0.0000   0.0000   0.0000   0.3042
   4.600   0.7861   0.00675   0.00198  -0.0466  0.4604  0.5298  -1.2689   0.0000   0.0000   0.0000   0.3025
   4.800   0.8093   0.00675   0.00200  -0.0468  0.4580  0.5314  -1.3051   0.0000   0.0000   0.0000   0.3008
   5.000   0.8325   0.00676   0.00203  -0.0470  0.4547  0.5330  -1.3445   0.0000   0.0000   0.0000   0.2992
   5.200   0.8556   0.00679   0.00205  -0.0471  0.4499  0.5346  -1.3895   0.0000   0.0000   0.0000   0.2976
   5.400   0.8784   0.00683   0.00208  -0.0472  0.4437  0.5361  -1.4360   0.0000   0.0000   0.0000   0.2961
   5.600   0.9011   0.00690   0.00213  -0.0474  0.4376  0.5376  -1.4842   0.0000   0.0000   0.0000   0.2947
   5.800   0.9236   0.00699   0.00220  -0.0474  0.4281  0.5390  -1.5402   0.0000   0.0000   0.0000   0.2933
   6.000   0.9462   0.00708   0.00228  -0.0476  0.4192  0.5404  -1.5968   0.0000   0.0000   0.0000   0.2919
   6.200   0.9693   0.00711   0.00234  -0.0477  0.4174  0.5417  -1.6618   0.0000   0.0000   0.0000   0.2907
   6.400   0.9921   0.00716   0.00243  -0.0479  0.4128  0.5430  -1.7333   0.0000   0.0000   0.0000   0.2895
   6.600   1.0142   0.00729   0.00251  -0.0479  0.3998  0.5441  -1.8045   0.0000   0.0000   0.0000   0.2882
   6.800   1.0355   0.00751   0.00264  -0.0479  0.3818  0.5450  -1.8866   0.0000   0.0000   0.0000   0.2870
   7.000   1.0577   0.00763   0.00276  -0.0480  0.3717  0.5456  -1.9796   0.0000   0.0000   0.0000   0.2858
   7.200   1.0792   0.00781   0.00291  -0.0480  0.3571  0.5479  -2.0722   0.0000   0.0000   0.0000   0.2847
   7.400   1.0984   0.00822   0.00319  -0.0477  0.3246  0.5571  -2.1753   0.0000   0.0000   0.0000   0.2834
   7.600   1.1164   0.00874   0.00356  -0.0474  0.2877  0.5686  -2.2814   0.0000   0.0000   0.0000   0.2821
   7.800   1.1344   0.00923   0.00393  -0.0470  0.2600  0.5787  -2.3893   0.0000   0.0000   0.0000   0.2809
   8.000   1.1527   0.00968   0.00429  -0.0467  0.2322  0.5871  -2.4997   0.0000   0.0000   0.0000   0.2797
   8.200   1.1707   0.01014   0.00466  -0.0463  0.2070  0.5950  -2.6508   0.0000   0.0000   0.0000   0.2785
   8.600   1.2068   0.01091   0.00536  -0.0456  0.1703  0.6409  -3.0165   0.0000   0.0000   0.0000   0.2761
   8.800   1.2237   0.01120   0.00574  -0.0450  0.1565  0.7086  -3.2005   0.0000   0.0000   0.0000   0.2749
   9.000   1.2470   0.01119   0.00621  -0.0458  0.1368  1.0000  -3.4181   0.0000   0.0000   0.0000   0.2746
   9.200   1.2641   0.01164   0.00660  -0.0453  0.1250  1.0000  -3.6116   0.0000   0.0000   0.0000   0.2734
   9.400   1.2797   0.01220   0.00705  -0.0447  0.1068  1.0000  -3.8005   0.0000   0.0000   0.0000   0.2721
   9.600   1.2945   0.01278   0.00754  -0.0439  0.0940  1.0000  -3.9894   0.0000   0.0000   0.0000   0.2709
   9.800   1.3092   0.01333   0.00801  -0.0431  0.0794  1.0000  -4.1810   0.0000   0.0000   0.0000   0.2696
  10.000   1.3239   0.01385   0.00847  -0.0424  0.0714  1.0000  -4.3769   0.0000   0.0000   0.0000   0.2683
  10.200   1.3362   0.01448   0.00904  -0.0414  0.0606  1.0000  -4.5622   0.0000   0.0000   0.0000   0.2670
  10.400   1.3513   0.01491   0.00946  -0.0406  0.0552  1.0000  -4.7666   0.0000   0.0000   0.0000   0.2658
  10.600   1.3641   0.01544   0.00996  -0.0396  0.0504  1.0000  -4.9613   0.0000   0.0000   0.0000   0.2644
  10.800   1.3725   0.01614   0.01062  -0.0381  0.0445  1.0000  -5.1331   0.0000   0.0000   0.0000   0.2629
  11.000   1.3778   0.01678   0.01125  -0.0361  0.0380  1.0000  -5.2886   0.0000   0.0000   0.0000   0.2609
  11.200   1.3841   0.01743   0.01198  -0.0344  0.0360  1.0000  -5.4519   0.0000   0.0000   0.0000   0.2593
  11.400   1.3883   0.01838   0.01294  -0.0331  0.0337  1.0000  -5.6023   0.0000   0.0000   0.0000   0.2579
  11.600   1.3910   0.01965   0.01421  -0.0321  0.0307  1.0000  -5.7422   0.0000   0.0000   0.0000   0.2568
  11.800   1.3932   0.02115   0.01571  -0.0314  0.0273  1.0000  -5.8780   0.0000   0.0000   0.0000   0.2558
  12.000   1.3982   0.02250   0.01707  -0.0309  0.0232  1.0000  -6.0328   0.0000   0.0000   0.0000   0.2550
  12.200   1.4040   0.02384   0.01845  -0.0305  0.0212  1.0000  -6.1939   0.0000   0.0000   0.0000   0.2543
  12.400   1.4117   0.02497   0.01962  -0.0301  0.0208  1.0000  -6.3728   0.0000   0.0000   0.0000   0.2535
  12.600   1.4161   0.02650   0.02119  -0.0299  0.0201  1.0000  -6.5296   0.0000   0.0000   0.0000   0.2528
  12.800   1.4208   0.02794   0.02265  -0.0295  0.0191  1.0000  -6.6899   0.0000   0.0000   0.0000   0.2521
  13.000   1.4245   0.02943   0.02414  -0.0290  0.0178  1.0000  -6.8451   0.0000   0.0000   0.0000   0.2513
  13.200   1.4233   0.03149   0.02623  -0.0287  0.0166  1.0000  -6.9631   0.0000   0.0000   0.0000   0.2507
  13.400   1.4241   0.03322   0.02797  -0.0282  0.0152  1.0000  -7.0975   0.0000   0.0000   0.0000   0.2499
  13.600   1.4257   0.03489   0.02965  -0.0277  0.0135  1.0000  -7.2410   0.0000   0.0000   0.0000   0.2491
  13.800   1.4270   0.03664   0.03144  -0.0272  0.0118  1.0000  -7.3869   0.0000   0.0000   0.0000   0.2484
  14.000   1.4216   0.03924   0.03412  -0.0271  0.0107  1.0000  -7.4756   0.0000   0.0000   0.0000   0.2479
  14.200   1.4220   0.04111   0.03606  -0.0267  0.0098  1.0000  -7.6117   0.0000   0.0000   0.0000   0.2472
  14.400   1.4282   0.04242   0.03739  -0.0264  0.0097  1.0000  -7.8102   0.0000   0.0000   0.0000   0.2466
  14.600   1.4343   0.04379   0.03879  -0.0263  0.0096  1.0000  -8.0092   0.0000   0.0000   0.0000   0.2460
  14.800   1.4394   0.04529   0.04033  -0.0261  0.0095  1.0000  -8.2009   0.0000   0.0000   0.0000   0.2454
  15.000   1.4394   0.04737   0.04246  -0.0261  0.0093  1.0000  -8.3486   0.0000   0.0000   0.0000   0.2449


