xflr5 v6.61

 Calculated polar for: AVISTAR

 1 1 Reynolds number fixed          Mach number fixed         

 xtrf =   1.000 (top)        1.000 (bottom)
 Mach =   0.000     Re =     0.500 e 6     Ncrit =   9.000

  alpha     CL        CD       CDp       Cm    Top Xtr Bot Xtr   Cpmin    Chinge    XCp    
 ------- -------- --------- --------- -------- ------- ------- -------- --------- ---------
 -10.000  -0.4147   0.09034   0.08785  -0.0438  1.0000  0.0304  -2.0422   0.0000   0.0000   0.0000   0.1297
  -9.800  -0.4187   0.08623   0.08376  -0.0462  1.0000  0.0308  -2.0988   0.0000   0.0000   0.0000   0.1253
  -9.600  -0.4246   0.08148   0.07904  -0.0494  1.0000  0.0312  -2.1743   0.0000   0.0000   0.0000   0.1198
  -9.400  -0.4375   0.07456   0.07215  -0.0550  1.0000  0.0315  -2.3181   0.0000   0.0000   0.0000   0.1109
  -9.000  -0.4903   0.05853   0.05586  -0.0707  0.9812  0.0311  -2.7235   0.0000   0.0000   0.0000   0.0940
  -8.800  -0.4975   0.05472   0.05189  -0.0720  0.9619  0.0314  -2.7802   0.0000   0.0000   0.0000   0.0938
  -8.600  -0.5015   0.05159   0.04858  -0.0719  0.9458  0.0318  -2.8163   0.0000   0.0000   0.0000   0.0955
  -8.200  -0.5746   0.03442   0.02991  -0.0620  0.9129  0.0273  -3.7795   0.0000   0.0000   0.0000   0.1315
  -8.000  -0.5624   0.03356   0.02895  -0.0608  0.9048  0.0278  -3.6802   0.0000   0.0000   0.0000   0.1314
  -7.800  -0.5486   0.03279   0.02812  -0.0599  0.8973  0.0284  -3.5727   0.0000   0.0000   0.0000   0.1304
  -7.600  -0.5345   0.03204   0.02730  -0.0590  0.8906  0.0293  -3.4707   0.0000   0.0000   0.0000   0.1295
  -7.400  -0.5200   0.03134   0.02650  -0.0581  0.8846  0.0306  -3.3750   0.0000   0.0000   0.0000   0.1283
  -7.200  -0.5037   0.03081   0.02588  -0.0573  0.8796  0.0328  -3.2842   0.0000   0.0000   0.0000   0.1264
  -7.000  -0.4834   0.03103   0.02605  -0.0568  0.8749  0.0355  -3.1711   0.0000   0.0000   0.0000   0.1227
  -6.800  -0.4565   0.03305   0.02811  -0.0569  0.8702  0.0373  -2.9709   0.0000   0.0000   0.0000   0.1156
  -6.600  -0.4335   0.03539   0.03038  -0.0563  0.8650  0.0381  -2.7913   0.0000   0.0000   0.0000   0.1104
  -6.000  -0.4079   0.02649   0.02111  -0.0532  0.8507  0.0463  -2.6415   0.0000   0.0000   0.0000   0.1102
  -5.800  -0.3896   0.02598   0.02055  -0.0527  0.8466  0.0484  -2.5302   0.0000   0.0000   0.0000   0.1055
  -5.600  -0.3703   0.02565   0.02015  -0.0521  0.8421  0.0505  -2.4191   0.0000   0.0000   0.0000   0.0998
  -5.400  -0.3510   0.02522   0.01957  -0.0516  0.8376  0.0517  -2.3084   0.0000   0.0000   0.0000   0.0937
  -5.200  -0.3236   0.02825   0.02264  -0.0516  0.8328  0.0544  -2.1178   0.0000   0.0000   0.0000   0.0812
  -5.000  -0.3061   0.02746   0.02171  -0.0507  0.8280  0.0545  -2.0324   0.0000   0.0000   0.0000   0.0747
  -4.800  -0.2881   0.02659   0.02070  -0.0500  0.8228  0.0546  -1.9482   0.0000   0.0000   0.0000   0.0668
  -4.600  -0.2818   0.02086   0.01467  -0.0485  0.8196  0.0590  -1.9676   0.0000   0.0000   0.0000   0.0682
  -4.400  -0.2623   0.02004   0.01382  -0.0482  0.8156  0.0604  -1.8658   0.0000   0.0000   0.0000   0.0565
  -4.200  -0.2421   0.01933   0.01310  -0.0479  0.8110  0.0618  -1.7628   0.0000   0.0000   0.0000   0.0422
  -4.000  -0.2219   0.01869   0.01244  -0.0475  0.8060  0.0634  -1.6626   0.0000   0.0000   0.0000   0.0255
  -3.800  -0.2015   0.01812   0.01180  -0.0471  0.8008  0.0650  -1.5653   0.0000   0.0000   0.0000   0.0056
  -3.600  -0.1810   0.01766   0.01128  -0.0467  0.7949  0.0672  -1.4679   0.0000   0.0000   0.0000  -0.0191
  -3.400  -0.1599   0.01732   0.01089  -0.0464  0.7893  0.0695  -1.3841   0.0000   0.0000   0.0000  -0.0516
  -3.200  -0.1386   0.01690   0.01044  -0.0460  0.7851  0.0710  -1.3245   0.0000   0.0000   0.0000  -0.0946
  -3.000  -0.1161   0.01542   0.00883  -0.0457  0.7803  0.0646  -1.3203   0.0000   0.0000   0.0000  -0.1570
  -2.800  -0.0906   0.01391   0.00706  -0.0447  0.7753  0.0439  -1.4367   0.0000   0.0000   0.0000  -0.2602
  -2.600  -0.0698   0.01338   0.00644  -0.0441  0.7696  0.0421  -1.4064   0.0000   0.0000   0.0000  -0.4011
  -2.400  -0.0493   0.01303   0.00603  -0.0436  0.7635  0.0412  -1.3564   0.0000   0.0000   0.0000  -0.6574
  -2.200  -0.0289   0.01276   0.00570  -0.0430  0.7562  0.0407  -1.2999   0.0000   0.0000   0.0000  -1.2763
  -2.000  -0.0085   0.01243   0.00535  -0.0426  0.7519  0.0403  -1.2413   0.0000   0.0000   0.0000  -4.8538
  -1.800   0.0115   0.01210   0.00502  -0.0420  0.7458  0.0401  -1.1850   0.0000   0.0000   0.0000   3.9630
  -1.600   0.0312   0.01177   0.00466  -0.0414  0.7387  0.0400  -1.1316   0.0000   0.0000   0.0000   1.5976
  -1.400   0.0505   0.01144   0.00428  -0.0406  0.7312  0.0401  -1.0820   0.0000   0.0000   0.0000   1.0663
  -1.200   0.0693   0.01113   0.00388  -0.0398  0.7227  0.0406  -1.0372   0.0000   0.0000   0.0000   0.8302
  -1.000   0.0885   0.01079   0.00350  -0.0390  0.7161  0.0419  -0.9975   0.0000   0.0000   0.0000   0.6944
  -0.800   0.1082   0.01048   0.00317  -0.0383  0.7080  0.0450  -0.9562   0.0000   0.0000   0.0000   0.6062
  -0.600   0.1285   0.01029   0.00294  -0.0378  0.6983  0.0500  -0.9043   0.0000   0.0000   0.0000   0.5449
  -0.400   0.1492   0.01021   0.00279  -0.0374  0.6876  0.0534  -0.8409   0.0000   0.0000   0.0000   0.5002
  -0.200   0.1704   0.01014   0.00270  -0.0371  0.6782  0.0551  -0.7719   0.0000   0.0000   0.0000   0.4666
   0.000   0.1913   0.01004   0.00254  -0.0367  0.6663  0.0592  -0.7099   0.0000   0.0000   0.0000   0.4401
   0.200   0.2117   0.01000   0.00241  -0.0362  0.6524  0.0645  -0.6569   0.0000   0.0000   0.0000   0.4187
   0.400   0.2322   0.00993   0.00234  -0.0357  0.6402  0.0733  -0.6779   0.0000   0.0000   0.0000   0.4014
   0.600   0.2366   0.00844   0.00215  -0.0327  0.6296  0.4609  -0.6891   0.0000   0.0000   0.0000   0.3852
   0.800   0.2440   0.00780   0.00217  -0.0295  0.6175  0.6592  -0.7028   0.0000   0.0000   0.0000   0.3676
   1.000   0.2592   0.00763   0.00221  -0.0278  0.6049  0.7354  -0.7211   0.0000   0.0000   0.0000   0.3535
   1.200   0.2770   0.00746   0.00225  -0.0266  0.5947  0.7968  -0.7411   0.0000   0.0000   0.0000   0.3420
   1.400   0.3011   0.00735   0.00234  -0.0267  0.5839  0.8665  -0.7649   0.0000   0.0000   0.0000   0.3345
   1.600   0.3303   0.00739   0.00239  -0.0281  0.5732  0.9096  -0.7918   0.0000   0.0000   0.0000   0.3309
   1.800   0.3809   0.00744   0.00247  -0.0345  0.5658  0.9333  -0.8341   0.0000   0.0000   0.0000   0.3363
   2.000   0.4328   0.00754   0.00257  -0.0412  0.5588  0.9417  -0.8793   0.0000   0.0000   0.0000   0.3408
   2.200   0.4719   0.00771   0.00265  -0.0449  0.5444  0.9505  -0.9168   0.0000   0.0000   0.0000   0.3407
   2.400   0.5124   0.00796   0.00282  -0.0489  0.5258  0.9578  -0.9556   0.0000   0.0000   0.0000   0.3408
   2.600   0.5462   0.00820   0.00300  -0.0513  0.5090  0.9683  -0.9903   0.0000   0.0000   0.0000   0.3391
   2.800   0.5757   0.00846   0.00314  -0.0529  0.4916  0.9767  -1.0220   0.0000   0.0000   0.0000   0.3369
   3.000   0.6034   0.00859   0.00325  -0.0541  0.4834  0.9854  -1.0526   0.0000   0.0000   0.0000   0.3346
   3.400   0.6618   0.00900   0.00349  -0.0575  0.4536  0.9956  -1.2178   0.0000   0.0000   0.0000   0.3313
   3.600   0.6929   0.00915   0.00355  -0.0595  0.4311  0.9982  -1.3364   0.0000   0.0000   0.0000   0.3303
   3.800   0.7204   0.00942   0.00362  -0.0610  0.3931  1.0000  -1.4476   0.0000   0.0000   0.0000   0.3288
   4.000   0.7294   0.01019   0.00384  -0.0590  0.2974  1.0000  -1.5168   0.0000   0.0000   0.0000   0.3248
   4.200   0.7358   0.01123   0.00433  -0.0566  0.2028  1.0000  -1.5759   0.0000   0.0000   0.0000   0.3206
   4.400   0.7337   0.01292   0.00521  -0.0528  0.0483  1.0000  -1.6116   0.0000   0.0000   0.0000   0.3155
   4.600   0.7495   0.01318   0.00545  -0.0516  0.0373  1.0000  -1.6823   0.0000   0.0000   0.0000   0.3122
   4.800   0.7659   0.01343   0.00572  -0.0505  0.0337  1.0000  -1.7606   0.0000   0.0000   0.0000   0.3091
   5.000   0.7801   0.01389   0.00621  -0.0489  0.0275  1.0000  -1.8007   0.0000   0.0000   0.0000   0.3057
   5.200   0.7924   0.01451   0.00696  -0.0470  0.0250  1.0000  -1.8195   0.0000   0.0000   0.0000   0.3021
   5.400   0.8041   0.01515   0.00768  -0.0450  0.0244  1.0000  -1.8577   0.0000   0.0000   0.0000   0.2986
   5.600   0.8183   0.01557   0.00813  -0.0436  0.0243  1.0000  -1.9267   0.0000   0.0000   0.0000   0.2956
   5.800   0.8316   0.01604   0.00864  -0.0420  0.0242  1.0000  -1.9925   0.0000   0.0000   0.0000   0.2926
   6.000   0.8434   0.01659   0.00929  -0.0402  0.0242  1.0000  -2.0546   0.0000   0.0000   0.0000   0.2895
   6.200   0.8539   0.01719   0.00993  -0.0381  0.0242  1.0000  -2.1116   0.0000   0.0000   0.0000   0.2863
   6.400   0.8628   0.01787   0.01065  -0.0358  0.0242  1.0000  -2.1628   0.0000   0.0000   0.0000   0.2829
   6.600   0.8693   0.01867   0.01149  -0.0331  0.0243  1.0000  -2.2049   0.0000   0.0000   0.0000   0.2793
   8.000   0.9270   0.02276   0.01570  -0.0171  0.0255  1.0000  -2.6292   0.0000   0.0000   0.0000   0.2579
   8.200   0.9380   0.02332   0.01628  -0.0155  0.0258  1.0000  -2.7016   0.0000   0.0000   0.0000   0.2557
   8.400   0.9494   0.02389   0.01687  -0.0140  0.0261  1.0000  -2.7742   0.0000   0.0000   0.0000   0.2537
   8.600   0.9611   0.02448   0.01748  -0.0126  0.0266  1.0000  -2.8456   0.0000   0.0000   0.0000   0.2518
   8.800   0.9733   0.02510   0.01814  -0.0113  0.0272  1.0000  -2.9122   0.0000   0.0000   0.0000   0.2500
   9.000   0.9877   0.02580   0.01892  -0.0101  0.0286  1.0000  -2.9545   0.0000   0.0000   0.0000   0.2483
   9.200   1.0180   0.02726   0.02052  -0.0103  0.0337  1.0000  -2.9266   0.0000   0.0000   0.0000   0.2480
   9.800   1.1246   0.03111   0.02483  -0.0151  0.0496  1.0000  -3.0437   0.0000   0.0000   0.0000   0.2507
  10.000   1.1381   0.03203   0.02580  -0.0139  0.0484  1.0000  -3.1194   0.0000   0.0000   0.0000   0.2493
  10.200   1.1508   0.03300   0.02682  -0.0128  0.0472  1.0000  -3.1964   0.0000   0.0000   0.0000   0.2478
  10.400   1.1628   0.03402   0.02787  -0.0116  0.0460  1.0000  -3.2757   0.0000   0.0000   0.0000   0.2464
  10.600   1.1748   0.03511   0.02899  -0.0104  0.0448  1.0000  -3.3585   0.0000   0.0000   0.0000   0.2451
  10.800   1.1879   0.03631   0.03021  -0.0096  0.0436  1.0000  -3.4477   0.0000   0.0000   0.0000   0.2441
  11.000   1.1979   0.03759   0.03151  -0.0084  0.0426  1.0000  -3.5302   0.0000   0.0000   0.0000   0.2427
  11.200   1.2140   0.03937   0.03329  -0.0083  0.0414  1.0000  -3.6263   0.0000   0.0000   0.0000   0.2423
  11.400   1.2142   0.05056   0.04492  -0.0091  0.0381  1.0000  -3.5338   0.0000   0.0000   0.0000   0.2428
  11.600   1.2163   0.05207   0.04655  -0.0070  0.0381  1.0000  -3.5993   0.0000   0.0000   0.0000   0.2407
  11.800   1.2169   0.05357   0.04817  -0.0047  0.0381  1.0000  -3.6602   0.0000   0.0000   0.0000   0.2385
  12.000   1.2141   0.05499   0.04968  -0.0019  0.0380  1.0000  -3.7114   0.0000   0.0000   0.0000   0.2359
  12.200   1.2077   0.05626   0.05106   0.0014  0.0380  1.0000  -3.7512   0.0000   0.0000   0.0000   0.2329
  12.400   1.2005   0.05758   0.05248   0.0043  0.0379  1.0000  -3.7883   0.0000   0.0000   0.0000   0.2301
  12.600   1.1930   0.05892   0.05393   0.0069  0.0379  1.0000  -3.8245   0.0000   0.0000   0.0000   0.2276
  12.800   1.1849   0.06019   0.05530   0.0093  0.0378  1.0000  -3.8607   0.0000   0.0000   0.0000   0.2252
  13.000   1.1782   0.06078   0.05597   0.0113  0.0376  1.0000  -3.9127   0.0000   0.0000   0.0000   0.2230
  13.200   1.1808   0.05926   0.05446   0.0128  0.0366  1.0000  -4.0326   0.0000   0.0000   0.0000   0.2213
  13.400   1.1770   0.06046   0.05574   0.0141  0.0361  1.0000  -4.0886   0.0000   0.0000   0.0000   0.2198
  13.600   1.1720   0.06216   0.05753   0.0151  0.0357  1.0000  -4.1338   0.0000   0.0000   0.0000   0.2185
  13.800   1.1660   0.06418   0.05965   0.0159  0.0354  1.0000  -4.1708   0.0000   0.0000   0.0000   0.2173
  14.000   1.1585   0.06651   0.06208   0.0165  0.0351  1.0000  -4.1989   0.0000   0.0000   0.0000   0.2163
  14.200   1.1507   0.06902   0.06469   0.0168  0.0348  1.0000  -4.2233   0.0000   0.0000   0.0000   0.2155
  14.400   1.1411   0.07182   0.06760   0.0169  0.0345  1.0000  -4.2374   0.0000   0.0000   0.0000   0.2148
  14.600   1.1306   0.07486   0.07074   0.0168  0.0343  1.0000  -4.2445   0.0000   0.0000   0.0000   0.2144
  14.800   1.1186   0.07806   0.07405   0.0164  0.0340  1.0000  -4.2427   0.0000   0.0000   0.0000   0.2141
  15.000   1.1047   0.08167   0.07777   0.0157  0.0339  1.0000  -4.2284   0.0000   0.0000   0.0000   0.2141


