xflr5 v6.61

 Calculated polar for: AVISTAR

 1 1 Reynolds number fixed          Mach number fixed         

 xtrf =   1.000 (top)        1.000 (bottom)
 Mach =   0.000     Re =     2.500 e 6     Ncrit =   9.000

  alpha     CL        CD       CDp       Cm    Top Xtr Bot Xtr   Cpmin    Chinge    XCp    
 ------- -------- --------- --------- -------- ------- ------- -------- --------- ---------
 -10.000  -0.8541   0.01938   0.01517  -0.0470  0.8309  0.0215  -6.6973   0.0000   0.0000   0.0000   0.1827
  -9.800  -0.8338   0.01943   0.01520  -0.0468  0.8233  0.0217  -6.4940   0.0000   0.0000   0.0000   0.1819
  -9.600  -0.8131   0.01945   0.01523  -0.0466  0.8213  0.0219  -6.2915   0.0000   0.0000   0.0000   0.1809
  -9.400  -0.7924   0.01948   0.01526  -0.0464  0.8184  0.0221  -6.0912   0.0000   0.0000   0.0000   0.1798
  -9.200  -0.7716   0.01951   0.01530  -0.0463  0.8151  0.0222  -5.8932   0.0000   0.0000   0.0000   0.1787
  -9.000  -0.7508   0.01955   0.01534  -0.0461  0.8115  0.0224  -5.6973   0.0000   0.0000   0.0000   0.1774
  -8.800  -0.7299   0.01960   0.01538  -0.0459  0.8074  0.0226  -5.5035   0.0000   0.0000   0.0000   0.1761
  -8.600  -0.7090   0.01967   0.01545  -0.0458  0.8029  0.0227  -5.3116   0.0000   0.0000   0.0000   0.1746
  -8.400  -0.6879   0.01977   0.01553  -0.0457  0.7973  0.0229  -5.1208   0.0000   0.0000   0.0000   0.1730
  -8.200  -0.6666   0.01990   0.01567  -0.0456  0.7917  0.0230  -4.9301   0.0000   0.0000   0.0000   0.1711
  -8.000  -0.6446   0.02012   0.01592  -0.0456  0.7898  0.0232  -4.7354   0.0000   0.0000   0.0000   0.1689
  -7.800  -0.6187   0.02118   0.01706  -0.0462  0.7885  0.0234  -4.4979   0.0000   0.0000   0.0000   0.1652
  -7.600  -0.5966   0.02139   0.01729  -0.0462  0.7867  0.0236  -4.3100   0.0000   0.0000   0.0000   0.1626
  -7.400  -0.5741   0.02170   0.01764  -0.0463  0.7843  0.0237  -4.1193   0.0000   0.0000   0.0000   0.1595
  -7.200  -0.5507   0.02225   0.01822  -0.0465  0.7813  0.0239  -3.9201   0.0000   0.0000   0.0000   0.1557
  -7.000  -0.5468   0.01930   0.01502  -0.0446  0.7774  0.0273  -3.8610   0.0000   0.0000   0.0000   0.1589
  -6.800  -0.5267   0.01917   0.01488  -0.0444  0.7727  0.0278  -3.6975   0.0000   0.0000   0.0000   0.1563
  -6.600  -0.5064   0.01905   0.01474  -0.0442  0.7669  0.0283  -3.5376   0.0000   0.0000   0.0000   0.1534
  -6.400  -0.4860   0.01890   0.01458  -0.0441  0.7598  0.0289  -3.3805   0.0000   0.0000   0.0000   0.1501
  -6.200  -0.4654   0.01871   0.01439  -0.0439  0.7558  0.0295  -3.2280   0.0000   0.0000   0.0000   0.1465
  -6.000  -0.4449   0.01848   0.01415  -0.0438  0.7544  0.0302  -3.0802   0.0000   0.0000   0.0000   0.1425
  -5.800  -0.4243   0.01823   0.01390  -0.0436  0.7525  0.0311  -2.9374   0.0000   0.0000   0.0000   0.1381
  -5.600  -0.4036   0.01798   0.01363  -0.0435  0.7498  0.0320  -2.7988   0.0000   0.0000   0.0000   0.1334
  -5.400  -0.3828   0.01774   0.01336  -0.0433  0.7461  0.0331  -2.6638   0.0000   0.0000   0.0000   0.1280
  -5.200  -0.3625   0.01728   0.01282  -0.0430  0.7414  0.0336  -2.5398   0.0000   0.0000   0.0000   0.1225
  -5.000  -0.3409   0.01724   0.01276  -0.0429  0.7356  0.0348  -2.4044   0.0000   0.0000   0.0000   0.1154
  -4.800  -0.3185   0.01747   0.01297  -0.0429  0.7284  0.0360  -2.2630   0.0000   0.0000   0.0000   0.1064
  -4.600  -0.2944   0.01818   0.01372  -0.0431  0.7206  0.0370  -2.1075   0.0000   0.0000   0.0000   0.0944
  -4.400  -0.2720   0.01826   0.01379  -0.0431  0.7189  0.0374  -1.9788   0.0000   0.0000   0.0000   0.0823
  -4.200  -0.2512   0.01785   0.01335  -0.0428  0.7161  0.0376  -1.8699   0.0000   0.0000   0.0000   0.0701
  -4.000  -0.2307   0.01732   0.01276  -0.0425  0.7116  0.0377  -1.7675   0.0000   0.0000   0.0000   0.0563
  -3.800  -0.2104   0.01676   0.01213  -0.0421  0.7047  0.0377  -1.6685   0.0000   0.0000   0.0000   0.0402
  -3.600  -0.1902   0.01620   0.01149  -0.0417  0.6955  0.0378  -1.5871   0.0000   0.0000   0.0000   0.0208
  -3.400  -0.1699   0.01564   0.01084  -0.0413  0.6840  0.0378  -1.5258   0.0000   0.0000   0.0000  -0.0034
  -3.200  -0.1490   0.01504   0.01020  -0.0410  0.6805  0.0378  -1.4647   0.0000   0.0000   0.0000  -0.0360
  -3.000  -0.1281   0.01446   0.00956  -0.0407  0.6741  0.0379  -1.4048   0.0000   0.0000   0.0000  -0.0794
  -2.800  -0.1073   0.01391   0.00892  -0.0403  0.6630  0.0379  -1.3461   0.0000   0.0000   0.0000  -0.1386
  -2.600  -0.0866   0.01338   0.00831  -0.0400  0.6474  0.0379  -1.2886   0.0000   0.0000   0.0000  -0.2261
  -2.400  -0.0652   0.01281   0.00770  -0.0397  0.6410  0.0379  -1.2308   0.0000   0.0000   0.0000  -0.3772
  -2.200  -0.0440   0.01230   0.00711  -0.0394  0.6277  0.0379  -1.1741   0.0000   0.0000   0.0000  -0.6687
  -2.000  -0.0232   0.01186   0.00655  -0.0391  0.6069  0.0379  -1.1179   0.0000   0.0000   0.0000  -1.4739
  -1.800  -0.0019   0.01141   0.00605  -0.0388  0.5934  0.0379  -1.0609   0.0000   0.0000   0.0000  -20.3281
  -1.600   0.0186   0.01098   0.00552  -0.0385  0.5694  0.0379  -1.0080   0.0000   0.0000   0.0000   2.3501
  -1.200   0.0427   0.00786   0.00203  -0.0334  0.5522  0.0258  -1.1780   0.0000   0.0000   0.0000   1.0414
  -1.000   0.0636   0.00782   0.00191  -0.0330  0.5375  0.0255  -1.1072   0.0000   0.0000   0.0000   0.7743
  -0.800   0.0851   0.00772   0.00178  -0.0328  0.5290  0.0254  -1.0383   0.0000   0.0000   0.0000   0.6377
  -0.600   0.1065   0.00762   0.00164  -0.0325  0.5229  0.0254  -0.9737   0.0000   0.0000   0.0000   0.5561
  -0.400   0.1266   0.00744   0.00138  -0.0319  0.5146  0.0362  -0.9548   0.0000   0.0000   0.0000   0.5014
  -0.200   0.1485   0.00747   0.00139  -0.0318  0.5052  0.0371  -0.8700   0.0000   0.0000   0.0000   0.4629
   0.000   0.1707   0.00748   0.00139  -0.0318  0.4957  0.0375  -0.7862   0.0000   0.0000   0.0000   0.4344
   0.200   0.1933   0.00747   0.00140  -0.0319  0.4921  0.0377  -0.7039   0.0000   0.0000   0.0000   0.4124
   0.400   0.2159   0.00745   0.00139  -0.0319  0.4902  0.0379  -0.6699   0.0000   0.0000   0.0000   0.3950
   0.600   0.2383   0.00744   0.00139  -0.0319  0.4855  0.0380  -0.6923   0.0000   0.0000   0.0000   0.3808
   1.000   0.2808   0.00754   0.00136  -0.0315  0.4544  0.0388  -0.7359   0.0000   0.0000   0.0000   0.3585
   1.200   0.3033   0.00751   0.00132  -0.0315  0.4526  0.0397  -0.7586   0.0000   0.0000   0.0000   0.3499
   1.400   0.3256   0.00748   0.00129  -0.0315  0.4496  0.0419  -0.7813   0.0000   0.0000   0.0000   0.3425
   1.600   0.3384   0.00679   0.00120  -0.0296  0.4419  0.2800  -0.7982   0.0000   0.0000   0.0000   0.3331
   1.800   0.3536   0.00643   0.00119  -0.0283  0.4302  0.4197  -0.8190   0.0000   0.0000   0.0000   0.3255
   2.000   0.3716   0.00620   0.00120  -0.0275  0.4185  0.5103  -0.8417   0.0000   0.0000   0.0000   0.3192
   2.200   0.3883   0.00584   0.00123  -0.0264  0.4150  0.6344  -0.8639   0.0000   0.0000   0.0000   0.3129
   2.400   0.4089   0.00577   0.00126  -0.0260  0.4103  0.6758  -0.8887   0.0000   0.0000   0.0000   0.3084
   2.600   0.4287   0.00586   0.00132  -0.0255  0.3924  0.6988  -0.9131   0.0000   0.0000   0.0000   0.3042
   2.800   0.4491   0.00592   0.00138  -0.0251  0.3738  0.7206  -0.9379   0.0000   0.0000   0.0000   0.3005
   3.000   0.4645   0.00619   0.00154  -0.0238  0.3243  0.7535  -0.9591   0.0000   0.0000   0.0000   0.2956
   3.200   0.4796   0.00652   0.00172  -0.0225  0.2730  0.7822  -0.9800   0.0000   0.0000   0.0000   0.2910
   3.400   0.4961   0.00670   0.00186  -0.0214  0.2439  0.8150  -1.0023   0.0000   0.0000   0.0000   0.2871
   3.600   0.5117   0.00679   0.00201  -0.0200  0.2195  0.8682  -1.0243   0.0000   0.0000   0.0000   0.2828
   3.800   0.5290   0.00712   0.00220  -0.0191  0.1749  0.8976  -1.0596   0.0000   0.0000   0.0000   0.2797
   4.000   0.5370   0.00828   0.00283  -0.0168  0.0363  0.9142  -1.1216   0.0000   0.0000   0.0000   0.2747
   4.400   0.6542   0.00864   0.00317  -0.0339  0.0238  0.9459  -1.4840   0.0000   0.0000   0.0000   0.2953
   4.600   0.6904   0.00881   0.00332  -0.0373  0.0221  0.9504  -1.6251   0.0000   0.0000   0.0000   0.2973
   5.200   0.7960   0.00998   0.00462  -0.0464  0.0142  0.9617  -1.9078   0.0000   0.0000   0.0000   0.3011
   5.400   0.8287   0.01027   0.00492  -0.0488  0.0144  0.9667  -2.0321   0.0000   0.0000   0.0000   0.3016
   5.800   0.8611   0.01082   0.00552  -0.0463  0.0148  0.9966  -2.2155   0.0000   0.0000   0.0000   0.2960
   6.000   0.8894   0.01110   0.00581  -0.0478  0.0152  0.9977  -2.3368   0.0000   0.0000   0.0000   0.2958
   6.200   0.9191   0.01138   0.00609  -0.0497  0.0156  0.9987  -2.4618   0.0000   0.0000   0.0000   0.2959
   6.400   0.9480   0.01171   0.00643  -0.0514  0.0161  0.9997  -2.5816   0.0000   0.0000   0.0000   0.2959
   8.200   1.0705   0.02354   0.01882  -0.0380  0.0242  1.0000  -2.8150   0.0000   0.0000   0.0000   0.2750
   8.400   1.0880   0.02432   0.01963  -0.0373  0.0242  1.0000  -2.9017   0.0000   0.0000   0.0000   0.2736
   8.600   1.1050   0.02509   0.02043  -0.0366  0.0241  1.0000  -2.9897   0.0000   0.0000   0.0000   0.2721
   8.800   1.1216   0.02579   0.02117  -0.0358  0.0241  1.0000  -3.0804   0.0000   0.0000   0.0000   0.2707
   9.000   1.1376   0.02636   0.02177  -0.0349  0.0240  1.0000  -3.1767   0.0000   0.0000   0.0000   0.2692
   9.200   1.1529   0.02659   0.02202  -0.0338  0.0238  1.0000  -3.2859   0.0000   0.0000   0.0000   0.2677
   9.400   1.1672   0.02636   0.02183  -0.0326  0.0235  1.0000  -3.4133   0.0000   0.0000   0.0000   0.2660
   9.600   1.1813   0.02626   0.02173  -0.0314  0.0230  1.0000  -3.5395   0.0000   0.0000   0.0000   0.2643
   9.800   1.1953   0.02642   0.02191  -0.0302  0.0225  1.0000  -3.6583   0.0000   0.0000   0.0000   0.2627
  10.000   1.2091   0.02675   0.02225  -0.0290  0.0220  1.0000  -3.7723   0.0000   0.0000   0.0000   0.2612
  10.200   1.2228   0.02720   0.02272  -0.0278  0.0215  1.0000  -3.8841   0.0000   0.0000   0.0000   0.2597
  10.400   1.2362   0.02774   0.02329  -0.0267  0.0210  1.0000  -3.9944   0.0000   0.0000   0.0000   0.2582
  10.600   1.2491   0.02835   0.02393  -0.0255  0.0205  1.0000  -4.1030   0.0000   0.0000   0.0000   0.2568
  10.800   1.2613   0.02901   0.02461  -0.0242  0.0200  1.0000  -4.2100   0.0000   0.0000   0.0000   0.2553
  11.000   1.2702   0.02966   0.02529  -0.0223  0.0196  1.0000  -4.3073   0.0000   0.0000   0.0000   0.2534
  11.200   1.2762   0.03029   0.02596  -0.0199  0.0193  1.0000  -4.3957   0.0000   0.0000   0.0000   0.2511
  11.400   1.2820   0.03097   0.02668  -0.0176  0.0190  1.0000  -4.4842   0.0000   0.0000   0.0000   0.2489
  11.600   1.2880   0.03169   0.02744  -0.0155  0.0187  1.0000  -4.5737   0.0000   0.0000   0.0000   0.2469
  11.800   1.2938   0.03246   0.02825  -0.0135  0.0184  1.0000  -4.6634   0.0000   0.0000   0.0000   0.2450
  12.000   1.2997   0.03329   0.02912  -0.0116  0.0182  1.0000  -4.7539   0.0000   0.0000   0.0000   0.2432
  12.200   1.3054   0.03416   0.03003  -0.0099  0.0179  1.0000  -4.8442   0.0000   0.0000   0.0000   0.2415
  12.400   1.3107   0.03509   0.03100  -0.0081  0.0177  1.0000  -4.9337   0.0000   0.0000   0.0000   0.2398
  12.600   1.3155   0.03604   0.03199  -0.0064  0.0175  1.0000  -5.0220   0.0000   0.0000   0.0000   0.2382
  12.800   1.3194   0.03701   0.03303  -0.0048  0.0173  1.0000  -5.1129   0.0000   0.0000   0.0000   0.2365
  13.000   1.3237   0.03805   0.03411  -0.0032  0.0171  1.0000  -5.2026   0.0000   0.0000   0.0000   0.2350
  13.200   1.3269   0.03917   0.03527  -0.0017  0.0170  1.0000  -5.2878   0.0000   0.0000   0.0000   0.2335
  13.400   1.3304   0.04033   0.03647  -0.0003  0.0168  1.0000  -5.3742   0.0000   0.0000   0.0000   0.2321
  13.600   1.3318   0.04159   0.03778   0.0012  0.0167  1.0000  -5.4512   0.0000   0.0000   0.0000   0.2306
  13.800   1.3328   0.04291   0.03915   0.0027  0.0166  1.0000  -5.5268   0.0000   0.0000   0.0000   0.2291
  14.000   1.3324   0.04430   0.04060   0.0041  0.0164  1.0000  -5.5963   0.0000   0.0000   0.0000   0.2276
  14.200   1.3312   0.04575   0.04210   0.0055  0.0163  1.0000  -5.6622   0.0000   0.0000   0.0000   0.2262
  14.400   1.3299   0.04729   0.04370   0.0068  0.0162  1.0000  -5.7328   0.0000   0.0000   0.0000   0.2248
  14.600   1.3273   0.04900   0.04547   0.0080  0.0161  1.0000  -5.8052   0.0000   0.0000   0.0000   0.2235
  14.800   1.3258   0.05072   0.04725   0.0090  0.0160  1.0000  -5.8827   0.0000   0.0000   0.0000   0.2223
  15.000   1.3215   0.05271   0.04930   0.0099  0.0159  1.0000  -5.9456   0.0000   0.0000   0.0000   0.2212


