xflr5 v6.61

 Calculated polar for: AVISTAR

 1 1 Reynolds number fixed          Mach number fixed         

 xtrf =   1.000 (top)        1.000 (bottom)
 Mach =   0.000     Re =     2.000 e 6     Ncrit =   9.000

  alpha     CL        CD       CDp       Cm    Top Xtr Bot Xtr   Cpmin    Chinge    XCp    
 ------- -------- --------- --------- -------- ------- ------- -------- --------- ---------
 -10.000  -0.8383   0.02167   0.01750  -0.0492  0.8476  0.0215  -6.5262   0.0000   0.0000   0.0000   0.1790
  -9.800  -0.8184   0.02168   0.01750  -0.0490  0.8425  0.0217  -6.3272   0.0000   0.0000   0.0000   0.1782
  -9.600  -0.7985   0.02170   0.01750  -0.0487  0.8369  0.0219  -6.1304   0.0000   0.0000   0.0000   0.1773
  -9.400  -0.7785   0.02172   0.01750  -0.0484  0.8298  0.0222  -5.9358   0.0000   0.0000   0.0000   0.1763
  -9.200  -0.7584   0.02175   0.01751  -0.0481  0.8229  0.0223  -5.7425   0.0000   0.0000   0.0000   0.1752
  -9.000  -0.7378   0.02177   0.01753  -0.0480  0.8211  0.0225  -5.5496   0.0000   0.0000   0.0000   0.1738
  -8.800  -0.7170   0.02179   0.01757  -0.0478  0.8187  0.0227  -5.3584   0.0000   0.0000   0.0000   0.1723
  -8.600  -0.6962   0.02184   0.01762  -0.0477  0.8157  0.0229  -5.1687   0.0000   0.0000   0.0000   0.1707
  -8.400  -0.6752   0.02193   0.01771  -0.0475  0.8122  0.0231  -4.9800   0.0000   0.0000   0.0000   0.1689
  -8.200  -0.6540   0.02207   0.01786  -0.0475  0.8084  0.0232  -4.7907   0.0000   0.0000   0.0000   0.1669
  -8.000  -0.6319   0.02240   0.01820  -0.0475  0.8041  0.0234  -4.5951   0.0000   0.0000   0.0000   0.1645
  -7.800  -0.6071   0.02332   0.01917  -0.0479  0.7991  0.0236  -4.3710   0.0000   0.0000   0.0000   0.1610
  -7.600  -0.5851   0.02363   0.01949  -0.0479  0.7935  0.0238  -4.1827   0.0000   0.0000   0.0000   0.1582
  -7.400  -0.5622   0.02412   0.02001  -0.0480  0.7901  0.0239  -3.9870   0.0000   0.0000   0.0000   0.1547
  -6.600  -0.4984   0.02091   0.01664  -0.0459  0.7809  0.0296  -3.4161   0.0000   0.0000   0.0000   0.1486
  -6.400  -0.4781   0.02088   0.01660  -0.0458  0.7768  0.0306  -3.2558   0.0000   0.0000   0.0000   0.1451
  -6.200  -0.4577   0.02086   0.01655  -0.0456  0.7719  0.0319  -3.1011   0.0000   0.0000   0.0000   0.1413
  -6.000  -0.4366   0.02093   0.01660  -0.0455  0.7658  0.0335  -2.9484   0.0000   0.0000   0.0000   0.1367
  -5.800  -0.4137   0.02136   0.01703  -0.0456  0.7589  0.0353  -2.7875   0.0000   0.0000   0.0000   0.1307
  -5.600  -0.3859   0.02289   0.01866  -0.0464  0.7556  0.0369  -2.5872   0.0000   0.0000   0.0000   0.1208
  -5.400  -0.3638   0.02300   0.01877  -0.0463  0.7540  0.0374  -2.4486   0.0000   0.0000   0.0000   0.1136
  -5.200  -0.3444   0.02237   0.01807  -0.0459  0.7516  0.0375  -2.3389   0.0000   0.0000   0.0000   0.1077
  -5.000  -0.3249   0.02175   0.01738  -0.0454  0.7483  0.0376  -2.2342   0.0000   0.0000   0.0000   0.1011
  -4.800  -0.3056   0.02104   0.01661  -0.0449  0.7441  0.0377  -2.1336   0.0000   0.0000   0.0000   0.0938
  -4.600  -0.2864   0.02031   0.01580  -0.0444  0.7389  0.0377  -2.0353   0.0000   0.0000   0.0000   0.0857
  -4.400  -0.2672   0.01959   0.01498  -0.0439  0.7327  0.0378  -1.9387   0.0000   0.0000   0.0000   0.0764
  -4.200  -0.2479   0.01888   0.01418  -0.0434  0.7250  0.0378  -1.8433   0.0000   0.0000   0.0000   0.0656
  -4.000  -0.2281   0.01815   0.01338  -0.0429  0.7198  0.0378  -1.7483   0.0000   0.0000   0.0000   0.0522
  -3.800  -0.2079   0.01742   0.01259  -0.0425  0.7174  0.0379  -1.6538   0.0000   0.0000   0.0000   0.0356
  -3.600  -0.1876   0.01671   0.01182  -0.0421  0.7135  0.0379  -1.5751   0.0000   0.0000   0.0000   0.0152
  -3.400  -0.1672   0.01603   0.01107  -0.0418  0.7073  0.0379  -1.5170   0.0000   0.0000   0.0000  -0.0105
  -3.200  -0.1467   0.01538   0.01034  -0.0414  0.6990  0.0379  -1.4595   0.0000   0.0000   0.0000  -0.0432
  -3.000  -0.1263   0.01476   0.00963  -0.0410  0.6880  0.0379  -1.4024   0.0000   0.0000   0.0000  -0.0866
  -2.800  -0.1052   0.01413   0.00895  -0.0407  0.6816  0.0379  -1.3450   0.0000   0.0000   0.0000  -0.1503
  -2.600  -0.0838   0.01350   0.00828  -0.0405  0.6758  0.0379  -1.2879   0.0000   0.0000   0.0000  -0.2481
  -2.400  -0.0626   0.01291   0.00762  -0.0402  0.6658  0.0379  -1.2319   0.0000   0.0000   0.0000  -0.4108
  -2.200  -0.0416   0.01235   0.00697  -0.0399  0.6512  0.0379  -1.1778   0.0000   0.0000   0.0000  -0.7325
  -2.000  -0.0200   0.01186   0.00643  -0.0397  0.6418  0.0379  -1.1192   0.0000   0.0000   0.0000  -1.7749
  -1.800  -0.0171   0.00817   0.00240  -0.0349  0.6334  0.0274  -1.4030   0.0000   0.0000   0.0000  -1.8398
  -1.600   0.0031   0.00811   0.00224  -0.0344  0.6126  0.0271  -1.3318   0.0000   0.0000   0.0000  11.4912
  -1.400   0.0242   0.00802   0.00209  -0.0341  0.5990  0.0269  -1.2595   0.0000   0.0000   0.0000   1.6843
  -1.200   0.0446   0.00799   0.00196  -0.0337  0.5797  0.0268  -1.1895   0.0000   0.0000   0.0000   1.0152
  -1.000   0.0657   0.00792   0.00183  -0.0334  0.5655  0.0267  -1.1204   0.0000   0.0000   0.0000   0.7629
  -0.800   0.0869   0.00785   0.00170  -0.0331  0.5554  0.0268  -1.0549   0.0000   0.0000   0.0000   0.6329
  -0.600   0.1070   0.00772   0.00150  -0.0325  0.5431  0.0350  -1.0269   0.0000   0.0000   0.0000   0.5541
  -0.400   0.1290   0.00774   0.00150  -0.0324  0.5301  0.0368  -0.9408   0.0000   0.0000   0.0000   0.5009
  -0.200   0.1514   0.00774   0.00151  -0.0324  0.5245  0.0375  -0.8545   0.0000   0.0000   0.0000   0.4630
   0.000   0.1735   0.00776   0.00153  -0.0324  0.5175  0.0378  -0.7706   0.0000   0.0000   0.0000   0.4349
   0.200   0.1955   0.00778   0.00155  -0.0324  0.5102  0.0380  -0.6895   0.0000   0.0000   0.0000   0.4131
   0.400   0.2174   0.00780   0.00154  -0.0323  0.5019  0.0383  -0.6708   0.0000   0.0000   0.0000   0.3957
   0.600   0.2391   0.00777   0.00148  -0.0321  0.4935  0.0394  -0.6927   0.0000   0.0000   0.0000   0.3812
   0.800   0.2614   0.00773   0.00143  -0.0321  0.4907  0.0405  -0.7151   0.0000   0.0000   0.0000   0.3693
   1.000   0.2833   0.00773   0.00140  -0.0320  0.4823  0.0417  -0.7373   0.0000   0.0000   0.0000   0.3592
   1.200   0.3042   0.00780   0.00138  -0.0317  0.4673  0.0438  -0.7591   0.0000   0.0000   0.0000   0.3502
   1.800   0.3510   0.00633   0.00125  -0.0279  0.4483  0.5142  -0.8170   0.0000   0.0000   0.0000   0.3248
   2.000   0.3678   0.00604   0.00128  -0.0268  0.4414  0.6257  -0.8391   0.0000   0.0000   0.0000   0.3180
   2.200   0.3867   0.00597   0.00132  -0.0261  0.4319  0.6817  -0.8627   0.0000   0.0000   0.0000   0.3124
   2.400   0.4068   0.00598   0.00137  -0.0256  0.4186  0.7098  -0.8871   0.0000   0.0000   0.0000   0.3077
   2.600   0.4278   0.00595   0.00140  -0.0253  0.4141  0.7352  -0.9123   0.0000   0.0000   0.0000   0.3038
   2.800   0.4476   0.00590   0.00144  -0.0247  0.4059  0.7700  -0.9369   0.0000   0.0000   0.0000   0.2997
   3.000   0.4647   0.00598   0.00154  -0.0236  0.3791  0.8078  -0.9595   0.0000   0.0000   0.0000   0.2952
   3.200   0.4809   0.00608   0.00165  -0.0224  0.3506  0.8557  -0.9817   0.0000   0.0000   0.0000   0.2907
   3.400   0.4968   0.00643   0.00184  -0.0212  0.2933  0.8919  -1.0032   0.0000   0.0000   0.0000   0.2867
   3.600   0.5156   0.00678   0.00203  -0.0207  0.2532  0.9102  -1.0270   0.0000   0.0000   0.0000   0.2840
   3.800   0.5432   0.00717   0.00224  -0.0223  0.2048  0.9271  -1.0877   0.0000   0.0000   0.0000   0.2848
   4.000   0.6086   0.00880   0.00313  -0.0337  0.0313  0.9450  -1.2707   0.0000   0.0000   0.0000   0.2991
   4.200   0.6527   0.00901   0.00332  -0.0388  0.0243  0.9517  -1.4149   0.0000   0.0000   0.0000   0.3031
   4.400   0.6888   0.00918   0.00347  -0.0421  0.0239  0.9551  -1.5563   0.0000   0.0000   0.0000   0.3046
   4.600   0.7234   0.00938   0.00364  -0.0450  0.0220  0.9578  -1.6955   0.0000   0.0000   0.0000   0.3056
   5.600   0.8515   0.01099   0.00536  -0.0492  0.0151  0.9979  -2.1508   0.0000   0.0000   0.0000   0.3003
   5.800   0.8808   0.01125   0.00566  -0.0510  0.0153  0.9989  -2.2735   0.0000   0.0000   0.0000   0.3001
   6.000   0.9098   0.01154   0.00597  -0.0527  0.0156  0.9998  -2.3944   0.0000   0.0000   0.0000   0.3000
   6.200   0.9296   0.01183   0.00627  -0.0523  0.0159  1.0000  -2.4942   0.0000   0.0000   0.0000   0.2982
   6.400   0.9466   0.01214   0.00660  -0.0514  0.0162  1.0000  -2.5857   0.0000   0.0000   0.0000   0.2959
   6.600   0.9628   0.01250   0.00700  -0.0503  0.0166  1.0000  -2.6700   0.0000   0.0000   0.0000   0.2936
   6.800   0.9761   0.01309   0.00768  -0.0486  0.0175  1.0000  -2.7149   0.0000   0.0000   0.0000   0.2909
   7.400   0.9880   0.02092   0.01584  -0.0387  0.0243  1.0000  -2.4538   0.0000   0.0000   0.0000   0.2796
   7.600   1.0074   0.02181   0.01675  -0.0383  0.0243  1.0000  -2.5342   0.0000   0.0000   0.0000   0.2782
   7.800   1.0266   0.02273   0.01768  -0.0379  0.0243  1.0000  -2.6151   0.0000   0.0000   0.0000   0.2769
   8.000   1.0453   0.02365   0.01863  -0.0374  0.0243  1.0000  -2.6964   0.0000   0.0000   0.0000   0.2756
   8.200   1.0635   0.02457   0.01959  -0.0369  0.0243  1.0000  -2.7781   0.0000   0.0000   0.0000   0.2742
   8.400   1.0812   0.02553   0.02058  -0.0363  0.0243  1.0000  -2.8592   0.0000   0.0000   0.0000   0.2729
   8.600   1.0985   0.02652   0.02161  -0.0356  0.0243  1.0000  -2.9396   0.0000   0.0000   0.0000   0.2715
   8.800   1.1151   0.02753   0.02266  -0.0349  0.0242  1.0000  -3.0198   0.0000   0.0000   0.0000   0.2701
   9.000   1.1312   0.02855   0.02373  -0.0341  0.0242  1.0000  -3.0995   0.0000   0.0000   0.0000   0.2687
   9.200   1.1466   0.02958   0.02483  -0.0332  0.0242  1.0000  -3.1786   0.0000   0.0000   0.0000   0.2672
   9.400   1.1615   0.03066   0.02600  -0.0322  0.0242  1.0000  -3.2555   0.0000   0.0000   0.0000   0.2658
   9.600   1.1756   0.03174   0.02714  -0.0312  0.0242  1.0000  -3.3327   0.0000   0.0000   0.0000   0.2643
   9.800   1.1890   0.03283   0.02829  -0.0300  0.0242  1.0000  -3.4093   0.0000   0.0000   0.0000   0.2628
  10.000   1.2017   0.03393   0.02946  -0.0288  0.0241  1.0000  -3.4851   0.0000   0.0000   0.0000   0.2613
  10.200   1.2136   0.03503   0.03063  -0.0275  0.0241  1.0000  -3.5603   0.0000   0.0000   0.0000   0.2597
  10.400   1.2247   0.03613   0.03179  -0.0261  0.0241  1.0000  -3.6350   0.0000   0.0000   0.0000   0.2581
  10.600   1.2350   0.03719   0.03292  -0.0246  0.0240  1.0000  -3.7097   0.0000   0.0000   0.0000   0.2564
  10.800   1.2446   0.03821   0.03400  -0.0231  0.0240  1.0000  -3.7854   0.0000   0.0000   0.0000   0.2547
  11.000   1.2536   0.03912   0.03497  -0.0214  0.0239  1.0000  -3.8637   0.0000   0.0000   0.0000   0.2530
  11.200   1.2622   0.03982   0.03572  -0.0197  0.0238  1.0000  -3.9487   0.0000   0.0000   0.0000   0.2512
  11.400   1.2711   0.04013   0.03607  -0.0180  0.0236  1.0000  -4.0484   0.0000   0.0000   0.0000   0.2494
  11.600   1.2815   0.04007   0.03601  -0.0164  0.0233  1.0000  -4.1684   0.0000   0.0000   0.0000   0.2478
  11.800   1.2873   0.04010   0.03606  -0.0139  0.0230  1.0000  -4.2708   0.0000   0.0000   0.0000   0.2455
  12.000   1.2878   0.04034   0.03633  -0.0108  0.0227  1.0000  -4.3493   0.0000   0.0000   0.0000   0.2427
  12.200   1.2888   0.04078   0.03680  -0.0079  0.0223  1.0000  -4.4256   0.0000   0.0000   0.0000   0.2402
  12.400   1.2902   0.04139   0.03745  -0.0055  0.0220  1.0000  -4.5125   0.0000   0.0000   0.0000   0.2379
  12.600   1.2916   0.04215   0.03826  -0.0032  0.0217  1.0000  -4.6015   0.0000   0.0000   0.0000   0.2358
  12.800   1.2923   0.04305   0.03921  -0.0010  0.0213  1.0000  -4.6864   0.0000   0.0000   0.0000   0.2338
  13.000   1.2923   0.04408   0.04030   0.0010  0.0210  1.0000  -4.7675   0.0000   0.0000   0.0000   0.2319
  13.200   1.2925   0.04513   0.04142   0.0028  0.0206  1.0000  -4.8472   0.0000   0.0000   0.0000   0.2301
  13.400   1.2919   0.04638   0.04273   0.0045  0.0203  1.0000  -4.9240   0.0000   0.0000   0.0000   0.2284
  13.600   1.2903   0.04779   0.04420   0.0061  0.0200  1.0000  -4.9959   0.0000   0.0000   0.0000   0.2268
  13.800   1.2885   0.04927   0.04575   0.0075  0.0198  1.0000  -5.0666   0.0000   0.0000   0.0000   0.2253
  14.000   1.2844   0.05090   0.04745   0.0090  0.0195  1.0000  -5.1265   0.0000   0.0000   0.0000   0.2238
  14.200   1.2812   0.05263   0.04925   0.0101  0.0193  1.0000  -5.1893   0.0000   0.0000   0.0000   0.2225
  14.400   1.2761   0.05458   0.05127   0.0112  0.0191  1.0000  -5.2428   0.0000   0.0000   0.0000   0.2212
  14.600   1.2719   0.05660   0.05335   0.0120  0.0189  1.0000  -5.2992   0.0000   0.0000   0.0000   0.2201
  14.800   1.2654   0.05886   0.05569   0.0127  0.0187  1.0000  -5.3437   0.0000   0.0000   0.0000   0.2191
  15.000   1.2598   0.06116   0.05806   0.0132  0.0185  1.0000  -5.3911   0.0000   0.0000   0.0000   0.2182


