xflr5 v6.61

 Calculated polar for: AVISTAR

 1 1 Reynolds number fixed          Mach number fixed         

 xtrf =   1.000 (top)        1.000 (bottom)
 Mach =   0.000     Re =     1.000 e 6     Ncrit =   9.000

  alpha     CL        CD       CDp       Cm    Top Xtr Bot Xtr   Cpmin    Chinge    XCp    
 ------- -------- --------- --------- -------- ------- ------- -------- --------- ---------
 -10.000  -0.7834   0.02844   0.02436  -0.0574  0.9139  0.0202  -5.9235   0.0000   0.0000   0.0000   0.1645
  -9.800  -0.7676   0.02817   0.02402  -0.0565  0.9033  0.0209  -5.7730   0.0000   0.0000   0.0000   0.1643
  -9.600  -0.7503   0.02803   0.02384  -0.0558  0.8938  0.0215  -5.6081   0.0000   0.0000   0.0000   0.1638
  -9.400  -0.7327   0.02799   0.02373  -0.0552  0.8844  0.0220  -5.4381   0.0000   0.0000   0.0000   0.1631
  -9.200  -0.7137   0.02796   0.02369  -0.0548  0.8783  0.0224  -5.2617   0.0000   0.0000   0.0000   0.1618
  -9.000  -0.6945   0.02797   0.02369  -0.0544  0.8719  0.0227  -5.0843   0.0000   0.0000   0.0000   0.1604
  -8.800  -0.6753   0.02803   0.02372  -0.0540  0.8649  0.0230  -4.9075   0.0000   0.0000   0.0000   0.1590
  -8.600  -0.6558   0.02816   0.02381  -0.0536  0.8577  0.0233  -4.7301   0.0000   0.0000   0.0000   0.1573
  -8.400  -0.6353   0.02835   0.02400  -0.0534  0.8524  0.0235  -4.5489   0.0000   0.0000   0.0000   0.1552
  -8.200  -0.6136   0.02874   0.02441  -0.0534  0.8491  0.0238  -4.3590   0.0000   0.0000   0.0000   0.1524
  -8.000  -0.5910   0.02937   0.02505  -0.0534  0.8453  0.0240  -4.1618   0.0000   0.0000   0.0000   0.1492
  -7.800  -0.5702   0.02971   0.02538  -0.0533  0.8411  0.0241  -3.9816   0.0000   0.0000   0.0000   0.1463
  -7.600  -0.5789   0.02488   0.02017  -0.0503  0.8358  0.0276  -4.0266   0.0000   0.0000   0.0000   0.1530
  -7.400  -0.5597   0.02482   0.02011  -0.0501  0.8311  0.0283  -3.8572   0.0000   0.0000   0.0000   0.1507
  -7.200  -0.5400   0.02480   0.02010  -0.0499  0.8256  0.0290  -3.6872   0.0000   0.0000   0.0000   0.1478
  -7.000  -0.5205   0.02476   0.02005  -0.0498  0.8221  0.0300  -3.5234   0.0000   0.0000   0.0000   0.1448
  -6.800  -0.5006   0.02470   0.02000  -0.0496  0.8196  0.0313  -3.3652   0.0000   0.0000   0.0000   0.1414
  -6.600  -0.4803   0.02466   0.01996  -0.0495  0.8166  0.0329  -3.2139   0.0000   0.0000   0.0000   0.1376
  -6.400  -0.4588   0.02481   0.02011  -0.0494  0.8132  0.0347  -3.0632   0.0000   0.0000   0.0000   0.1331
  -6.200  -0.4232   0.02863   0.02416  -0.0509  0.8094  0.0374  -2.7649   0.0000   0.0000   0.0000   0.1205
  -6.000  -0.4035   0.02864   0.02410  -0.0504  0.8052  0.0377  -2.6479   0.0000   0.0000   0.0000   0.1159
  -5.800  -0.3865   0.02778   0.02313  -0.0496  0.8006  0.0378  -2.5575   0.0000   0.0000   0.0000   0.1125
  -5.600  -0.3696   0.02683   0.02205  -0.0488  0.7953  0.0379  -2.4676   0.0000   0.0000   0.0000   0.1086
  -5.400  -0.3525   0.02576   0.02082  -0.0482  0.7902  0.0379  -2.3738   0.0000   0.0000   0.0000   0.1041
  -5.200  -0.3346   0.02479   0.01976  -0.0475  0.7879  0.0379  -2.2825   0.0000   0.0000   0.0000   0.0987
  -5.000  -0.3164   0.02383   0.01872  -0.0469  0.7847  0.0379  -2.1908   0.0000   0.0000   0.0000   0.0925
  -4.800  -0.2980   0.02290   0.01770  -0.0463  0.7806  0.0380  -2.0988   0.0000   0.0000   0.0000   0.0852
  -4.600  -0.2793   0.02200   0.01671  -0.0457  0.7759  0.0380  -2.0068   0.0000   0.0000   0.0000   0.0768
  -4.400  -0.2604   0.02114   0.01575  -0.0452  0.7711  0.0380  -1.9147   0.0000   0.0000   0.0000   0.0670
  -4.200  -0.2412   0.02031   0.01482  -0.0446  0.7659  0.0380  -1.8229   0.0000   0.0000   0.0000   0.0553
  -4.000  -0.2217   0.01952   0.01392  -0.0441  0.7597  0.0380  -1.7313   0.0000   0.0000   0.0000   0.0411
  -3.800  -0.2017   0.01873   0.01306  -0.0437  0.7553  0.0380  -1.6393   0.0000   0.0000   0.0000   0.0230
  -3.600  -0.1812   0.01794   0.01221  -0.0434  0.7525  0.0381  -1.5694   0.0000   0.0000   0.0000  -0.0001
  -3.400  -0.1605   0.01716   0.01139  -0.0431  0.7487  0.0381  -1.5142   0.0000   0.0000   0.0000  -0.0296
  -3.200  -0.1396   0.01640   0.01058  -0.0428  0.7437  0.0381  -1.4599   0.0000   0.0000   0.0000  -0.0684
  -3.000  -0.1186   0.01566   0.00978  -0.0425  0.7379  0.0381  -1.4064   0.0000   0.0000   0.0000  -0.1215
  -2.800  -0.1006   0.01191   0.00588  -0.0415  0.7322  0.0351  -1.5292   0.0000   0.0000   0.0000  -0.1771
  -2.600  -0.0811   0.01135   0.00525  -0.0409  0.7243  0.0345  -1.4878   0.0000   0.0000   0.0000  -0.2700
  -2.400  -0.0617   0.01083   0.00471  -0.0402  0.7188  0.0339  -1.4448   0.0000   0.0000   0.0000  -0.4208
  -2.200  -0.0422   0.01037   0.00423  -0.0395  0.7142  0.0334  -1.3987   0.0000   0.0000   0.0000  -0.7109
  -2.000  -0.0229   0.00999   0.00378  -0.0388  0.7075  0.0330  -1.3498   0.0000   0.0000   0.0000  -1.4874
  -1.800  -0.0035   0.00968   0.00341  -0.0381  0.6988  0.0328  -1.2987   0.0000   0.0000   0.0000  -10.8561
  -1.600   0.0158   0.00944   0.00308  -0.0373  0.6881  0.0327  -1.2456   0.0000   0.0000   0.0000   2.6539
  -1.400   0.0361   0.00921   0.00280  -0.0368  0.6804  0.0327  -1.1897   0.0000   0.0000   0.0000   1.2867
  -1.200   0.0568   0.00901   0.00256  -0.0364  0.6720  0.0329  -1.1324   0.0000   0.0000   0.0000   0.8989
  -1.000   0.0772   0.00887   0.00234  -0.0359  0.6592  0.0334  -1.0755   0.0000   0.0000   0.0000   0.7192
  -0.800   0.0975   0.00879   0.00216  -0.0354  0.6440  0.0347  -1.0195   0.0000   0.0000   0.0000   0.6149
  -0.600   0.1189   0.00873   0.00208  -0.0351  0.6312  0.0369  -0.9527   0.0000   0.0000   0.0000   0.5460
  -0.400   0.1399   0.00881   0.00210  -0.0349  0.6123  0.0379  -0.8724   0.0000   0.0000   0.0000   0.4987
  -0.200   0.1604   0.00868   0.00191  -0.0344  0.6005  0.0438  -0.8174   0.0000   0.0000   0.0000   0.4633
   0.000   0.1814   0.00867   0.00184  -0.0341  0.5869  0.0463  -0.7458   0.0000   0.0000   0.0000   0.4362
   0.200   0.2018   0.00870   0.00181  -0.0337  0.5695  0.0481  -0.6747   0.0000   0.0000   0.0000   0.4147
   0.400   0.2235   0.00867   0.00177  -0.0335  0.5619  0.0498  -0.6740   0.0000   0.0000   0.0000   0.3974
   0.600   0.2448   0.00867   0.00173  -0.0333  0.5520  0.0515  -0.6957   0.0000   0.0000   0.0000   0.3831
   0.800   0.2659   0.00871   0.00171  -0.0331  0.5417  0.0533  -0.7173   0.0000   0.0000   0.0000   0.3710
   1.200   0.2911   0.00723   0.00153  -0.0295  0.5285  0.4838  -0.7501   0.0000   0.0000   0.0000   0.3476
   1.400   0.3046   0.00672   0.00156  -0.0277  0.5249  0.6439  -0.7675   0.0000   0.0000   0.0000   0.3369
   1.600   0.3226   0.00658   0.00161  -0.0267  0.5195  0.7015  -0.7877   0.0000   0.0000   0.0000   0.3285
   1.800   0.3414   0.00657   0.00164  -0.0260  0.5088  0.7365  -0.8098   0.0000   0.0000   0.0000   0.3214
   2.000   0.3585   0.00654   0.00170  -0.0248  0.4924  0.7839  -0.8319   0.0000   0.0000   0.0000   0.3143
   2.200   0.3769   0.00638   0.00175  -0.0238  0.4836  0.8467  -0.8554   0.0000   0.0000   0.0000   0.3080
   2.400   0.4009   0.00637   0.00182  -0.0241  0.4716  0.8955  -0.8825   0.0000   0.0000   0.0000   0.3049
   2.600   0.4303   0.00643   0.00187  -0.0258  0.4599  0.9168  -0.9132   0.0000   0.0000   0.0000   0.3046
   2.800   0.4697   0.00647   0.00194  -0.0297  0.4520  0.9326  -0.9509   0.0000   0.0000   0.0000   0.3080
   3.000   0.5265   0.00656   0.00201  -0.0378  0.4390  0.9411  -1.0010   0.0000   0.0000   0.0000   0.3164
   3.200   0.5789   0.00682   0.00216  -0.0448  0.4151  0.9516  -1.0484   0.0000   0.0000   0.0000   0.3219
   3.400   0.6203   0.00719   0.00235  -0.0492  0.3780  0.9587  -1.1417   0.0000   0.0000   0.0000   0.3238
   3.600   0.6438   0.00812   0.00274  -0.0502  0.2739  0.9636  -1.2417   0.0000   0.0000   0.0000   0.3223
   3.800   0.6670   0.00892   0.00315  -0.0510  0.2008  0.9707  -1.3410   0.0000   0.0000   0.0000   0.3205
   4.000   0.6716   0.01065   0.00412  -0.0483  0.0382  0.9924  -1.3946   0.0000   0.0000   0.0000   0.3158
   4.200   0.6999   0.01092   0.00433  -0.0497  0.0318  0.9955  -1.5054   0.0000   0.0000   0.0000   0.3148
   4.400   0.7284   0.01122   0.00465  -0.0512  0.0248  0.9974  -1.6012   0.0000   0.0000   0.0000   0.3139
   4.600   0.7582   0.01135   0.00474  -0.0531  0.0235  0.9987  -1.7280   0.0000   0.0000   0.0000   0.3134
   4.800   0.7881   0.01158   0.00496  -0.0549  0.0209  0.9999  -1.8349   0.0000   0.0000   0.0000   0.3129
   5.000   0.8057   0.01180   0.00519  -0.0540  0.0198  1.0000  -1.9121   0.0000   0.0000   0.0000   0.3101
   5.200   0.8223   0.01204   0.00545  -0.0530  0.0194  1.0000  -1.9899   0.0000   0.0000   0.0000   0.3073
   5.400   0.8390   0.01231   0.00574  -0.0519  0.0191  1.0000  -2.0687   0.0000   0.0000   0.0000   0.3045
   5.600   0.8557   0.01260   0.00605  -0.0509  0.0190  1.0000  -2.1477   0.0000   0.0000   0.0000   0.3019
   5.800   0.8722   0.01291   0.00646  -0.0498  0.0190  1.0000  -2.2284   0.0000   0.0000   0.0000   0.2993
   6.000   0.8882   0.01327   0.00685  -0.0486  0.0190  1.0000  -2.3048   0.0000   0.0000   0.0000   0.2967
   6.200   0.9037   0.01367   0.00730  -0.0474  0.0191  1.0000  -2.3787   0.0000   0.0000   0.0000   0.2942
   6.400   0.9184   0.01412   0.00779  -0.0460  0.0193  1.0000  -2.4496   0.0000   0.0000   0.0000   0.2916
   6.600   0.9321   0.01462   0.00834  -0.0444  0.0195  1.0000  -2.5167   0.0000   0.0000   0.0000   0.2890
   6.800   0.9447   0.01517   0.00894  -0.0427  0.0197  1.0000  -2.5800   0.0000   0.0000   0.0000   0.2863
   7.000   0.9560   0.01578   0.00960  -0.0408  0.0200  1.0000  -2.6388   0.0000   0.0000   0.0000   0.2835
   7.200   0.9659   0.01645   0.01033  -0.0386  0.0203  1.0000  -2.6925   0.0000   0.0000   0.0000   0.2806
   7.400   0.9744   0.01718   0.01110  -0.0363  0.0206  1.0000  -2.7415   0.0000   0.0000   0.0000   0.2776
   7.600   0.9815   0.01796   0.01193  -0.0336  0.0209  1.0000  -2.7859   0.0000   0.0000   0.0000   0.2744
   7.800   0.9861   0.01876   0.01277  -0.0306  0.0213  1.0000  -2.8237   0.0000   0.0000   0.0000   0.2709
   8.000   0.9872   0.01954   0.01359  -0.0268  0.0217  1.0000  -2.8535   0.0000   0.0000   0.0000   0.2668
   8.200   0.9902   0.02045   0.01454  -0.0236  0.0221  1.0000  -2.8818   0.0000   0.0000   0.0000   0.2632
   8.400   0.9975   0.02170   0.01583  -0.0213  0.0228  1.0000  -2.9004   0.0000   0.0000   0.0000   0.2604
   9.400   1.0798   0.02547   0.01976  -0.0167  0.0281  1.0000  -3.2137   0.0000   0.0000   0.0000   0.2533
   9.600   1.0953   0.02632   0.02061  -0.0160  0.0276  1.0000  -3.3098   0.0000   0.0000   0.0000   0.2522
   9.800   1.1130   0.02723   0.02161  -0.0155  0.0277  1.0000  -3.3911   0.0000   0.0000   0.0000   0.2512
  10.000   1.1301   0.02820   0.02258  -0.0150  0.0273  1.0000  -3.4884   0.0000   0.0000   0.0000   0.2504
  10.200   1.1519   0.02942   0.02379  -0.0155  0.0267  1.0000  -3.5992   0.0000   0.0000   0.0000   0.2503
  11.600   1.2373   0.04844   0.04369  -0.0114  0.0243  1.0000  -3.8468   0.0000   0.0000   0.0000   0.2443
  11.800   1.2389   0.05005   0.04540  -0.0092  0.0243  1.0000  -3.8984   0.0000   0.0000   0.0000   0.2421
  12.000   1.2388   0.05169   0.04714  -0.0067  0.0243  1.0000  -3.9594   0.0000   0.0000   0.0000   0.2399
  12.200   1.2332   0.05312   0.04865  -0.0034  0.0243  1.0000  -4.0031   0.0000   0.0000   0.0000   0.2369
  12.400   1.2264   0.05459   0.05022  -0.0003  0.0243  1.0000  -4.0415   0.0000   0.0000   0.0000   0.2340
  12.600   1.2193   0.05621   0.05193   0.0025  0.0243  1.0000  -4.0775   0.0000   0.0000   0.0000   0.2314
  12.800   1.2116   0.05795   0.05377   0.0050  0.0243  1.0000  -4.1100   0.0000   0.0000   0.0000   0.2290
  13.000   1.2030   0.05981   0.05573   0.0072  0.0243  1.0000  -4.1382   0.0000   0.0000   0.0000   0.2268
  13.200   1.1939   0.06184   0.05786   0.0091  0.0243  1.0000  -4.1625   0.0000   0.0000   0.0000   0.2247
  13.400   1.1840   0.06401   0.06014   0.0107  0.0243  1.0000  -4.1822   0.0000   0.0000   0.0000   0.2229
  13.600   1.1727   0.06629   0.06251   0.0122  0.0243  1.0000  -4.1955   0.0000   0.0000   0.0000   0.2212
  13.800   1.1612   0.06876   0.06508   0.0133  0.0243  1.0000  -4.2054   0.0000   0.0000   0.0000   0.2197
  14.000   1.1488   0.07146   0.06788   0.0141  0.0243  1.0000  -4.2099   0.0000   0.0000   0.0000   0.2185
  14.200   1.1357   0.07436   0.07088   0.0145  0.0243  1.0000  -4.2089   0.0000   0.0000   0.0000   0.2175
  14.400   1.1223   0.07743   0.07406   0.0147  0.0243  1.0000  -4.2041   0.0000   0.0000   0.0000   0.2168
  14.600   1.1080   0.08068   0.07740   0.0145  0.0243  1.0000  -4.1932   0.0000   0.0000   0.0000   0.2163
  14.800   1.0920   0.08410   0.08093   0.0141  0.0243  1.0000  -4.1721   0.0000   0.0000   0.0000   0.2160
  15.000   1.0761   0.08785   0.08477   0.0132  0.0243  1.0000  -4.1472   0.0000   0.0000   0.0000   0.2162


