xflr5 v6.61

 Calculated polar for: AVISTAR

 1 1 Reynolds number fixed          Mach number fixed         

 xtrf =   1.000 (top)        1.000 (bottom)
 Mach =   0.000     Re =     3.000 e 6     Ncrit =   9.000

  alpha     CL        CD       CDp       Cm    Top Xtr Bot Xtr   Cpmin    Chinge    XCp    
 ------- -------- --------- --------- -------- ------- ------- -------- --------- ---------
 -10.000  -0.8669   0.01741   0.01320  -0.0453  0.8207  0.0214  -6.8385   0.0000   0.0000   0.0000   0.1855
  -9.800  -0.8459   0.01746   0.01325  -0.0451  0.8176  0.0216  -6.6304   0.0000   0.0000   0.0000   0.1846
  -9.600  -0.8249   0.01751   0.01330  -0.0449  0.8134  0.0218  -6.4246   0.0000   0.0000   0.0000   0.1837
  -9.400  -0.8039   0.01758   0.01335  -0.0448  0.8091  0.0220  -6.2213   0.0000   0.0000   0.0000   0.1827
  -9.200  -0.7828   0.01764   0.01341  -0.0446  0.8046  0.0221  -6.0203   0.0000   0.0000   0.0000   0.1816
  -9.000  -0.7618   0.01771   0.01347  -0.0445  0.7993  0.0223  -5.8216   0.0000   0.0000   0.0000   0.1804
  -8.800  -0.7406   0.01779   0.01354  -0.0444  0.7935  0.0224  -5.6248   0.0000   0.0000   0.0000   0.1791
  -8.600  -0.7193   0.01786   0.01362  -0.0443  0.7902  0.0226  -5.4294   0.0000   0.0000   0.0000   0.1776
  -8.400  -0.6977   0.01795   0.01372  -0.0442  0.7892  0.0227  -5.2351   0.0000   0.0000   0.0000   0.1760
  -8.200  -0.6760   0.01807   0.01386  -0.0442  0.7877  0.0229  -5.0416   0.0000   0.0000   0.0000   0.1742
  -8.000  -0.6540   0.01826   0.01408  -0.0442  0.7856  0.0230  -4.8465   0.0000   0.0000   0.0000   0.1721
  -7.800  -0.6277   0.01944   0.01535  -0.0448  0.7830  0.0233  -4.6001   0.0000   0.0000   0.0000   0.1685
  -7.600  -0.6058   0.01962   0.01554  -0.0448  0.7797  0.0234  -4.4126   0.0000   0.0000   0.0000   0.1660
  -7.400  -0.5836   0.01986   0.01580  -0.0449  0.7757  0.0235  -4.2247   0.0000   0.0000   0.0000   0.1633
  -7.200  -0.5610   0.02023   0.01618  -0.0450  0.7707  0.0237  -4.0336   0.0000   0.0000   0.0000   0.1601
  -7.000  -0.5372   0.02087   0.01686  -0.0453  0.7642  0.0238  -3.8312   0.0000   0.0000   0.0000   0.1561
  -0.400   0.1266   0.00748   0.00161  -0.0321  0.4941  0.0245  -0.8944   0.0000   0.0000   0.0000   0.5029
   0.400   0.2145   0.00720   0.00129  -0.0316  0.4807  0.0377  -0.6690   0.0000   0.0000   0.0000   0.3944
   0.600   0.2359   0.00727   0.00129  -0.0314  0.4660  0.0378  -0.6907   0.0000   0.0000   0.0000   0.3800
   0.800   0.2579   0.00728   0.00130  -0.0313  0.4534  0.0379  -0.7130   0.0000   0.0000   0.0000   0.3681
   1.000   0.2804   0.00727   0.00129  -0.0314  0.4504  0.0380  -0.7357   0.0000   0.0000   0.0000   0.3582
   1.200   0.3027   0.00726   0.00128  -0.0314  0.4460  0.0381  -0.7583   0.0000   0.0000   0.0000   0.3497
   1.400   0.3245   0.00729   0.00126  -0.0312  0.4376  0.0387  -0.7807   0.0000   0.0000   0.0000   0.3422
   1.800   0.3561   0.00646   0.00115  -0.0287  0.4157  0.3436  -0.8208   0.0000   0.0000   0.0000   0.3260
   2.000   0.3743   0.00616   0.00115  -0.0279  0.4132  0.4453  -0.8437   0.0000   0.0000   0.0000   0.3198
   2.200   0.3920   0.00590   0.00116  -0.0270  0.4058  0.5461  -0.8666   0.0000   0.0000   0.0000   0.3141
   2.400   0.4086   0.00580   0.00122  -0.0259  0.3832  0.6337  -0.8886   0.0000   0.0000   0.0000   0.3083
   2.600   0.4287   0.00579   0.00127  -0.0255  0.3699  0.6725  -0.9131   0.0000   0.0000   0.0000   0.3041
   2.800   0.4449   0.00617   0.00143  -0.0244  0.3148  0.6900  -0.9346   0.0000   0.0000   0.0000   0.2994
   3.000   0.4617   0.00642   0.00160  -0.0234  0.2702  0.7179  -0.9566   0.0000   0.0000   0.0000   0.2950
   3.200   0.4792   0.00660   0.00173  -0.0225  0.2413  0.7477  -0.9794   0.0000   0.0000   0.0000   0.2911
   3.400   0.4976   0.00678   0.00185  -0.0218  0.2182  0.7704  -1.0033   0.0000   0.0000   0.0000   0.2878
   3.800   0.5177   0.00808   0.00262  -0.0173  0.0380  0.8365  -1.0348   0.0000   0.0000   0.0000   0.2770
   4.000   0.5359   0.00810   0.00273  -0.0164  0.0324  0.8835  -1.1211   0.0000   0.0000   0.0000   0.2740
   4.200   0.5572   0.00817   0.00282  -0.0162  0.0258  0.9055  -1.2175   0.0000   0.0000   0.0000   0.2724
   4.400   0.5888   0.00822   0.00292  -0.0185  0.0241  0.9303  -1.3401   0.0000   0.0000   0.0000   0.2746
   4.600   0.6594   0.00842   0.00311  -0.0299  0.0220  0.9416  -1.5573   0.0000   0.0000   0.0000   0.2886
  12.000   1.2928   0.03036   0.02618  -0.0115  0.0163  1.0000  -5.0040   0.0000   0.0000   0.0000   0.2430
  12.200   1.2993   0.03122   0.02708  -0.0100  0.0162  1.0000  -5.1027   0.0000   0.0000   0.0000   0.2415
  12.400   1.3060   0.03212   0.02802  -0.0086  0.0160  1.0000  -5.2026   0.0000   0.0000   0.0000   0.2400
  12.600   1.3123   0.03308   0.02901  -0.0072  0.0159  1.0000  -5.3015   0.0000   0.0000   0.0000   0.2386
  12.800   1.3183   0.03408   0.03006  -0.0059  0.0157  1.0000  -5.4038   0.0000   0.0000   0.0000   0.2372
  13.000   1.3249   0.03512   0.03113  -0.0047  0.0155  1.0000  -5.5052   0.0000   0.0000   0.0000   0.2359
  13.200   1.3303   0.03626   0.03231  -0.0034  0.0154  1.0000  -5.6009   0.0000   0.0000   0.0000   0.2346
  13.400   1.3362   0.03746   0.03354  -0.0023  0.0152  1.0000  -5.6965   0.0000   0.0000   0.0000   0.2334
  13.600   1.3425   0.03880   0.03491  -0.0013  0.0149  1.0000  -5.7888   0.0000   0.0000   0.0000   0.2323


