xflr5 v6.61

 Calculated polar for: AVISTAR

 1 1 Reynolds number fixed          Mach number fixed         

 xtrf =   1.000 (top)        1.000 (bottom)
 Mach =   0.000     Re =     1.500 e 6     Ncrit =   9.000

  alpha     CL        CD       CDp       Cm    Top Xtr Bot Xtr   Cpmin    Chinge    XCp    
 ------- -------- --------- --------- -------- ------- ------- -------- --------- ---------
 -10.000  -0.8180   0.02442   0.02027  -0.0521  0.8708  0.0214  -6.3085   0.0000   0.0000   0.0000   0.1740
  -9.800  -0.7990   0.02443   0.02025  -0.0517  0.8628  0.0217  -6.1170   0.0000   0.0000   0.0000   0.1733
  -9.600  -0.7799   0.02445   0.02023  -0.0513  0.8541  0.0220  -5.9268   0.0000   0.0000   0.0000   0.1724
  -9.400  -0.7600   0.02443   0.02021  -0.0510  0.8506  0.0222  -5.7357   0.0000   0.0000   0.0000   0.1713
  -9.200  -0.7401   0.02443   0.02021  -0.0508  0.8460  0.0225  -5.5465   0.0000   0.0000   0.0000   0.1700
  -9.000  -0.7202   0.02445   0.02022  -0.0505  0.8407  0.0227  -5.3593   0.0000   0.0000   0.0000   0.1687
  -8.800  -0.7002   0.02450   0.02025  -0.0502  0.8352  0.0229  -5.1736   0.0000   0.0000   0.0000   0.1672
  -8.600  -0.6799   0.02458   0.02031  -0.0500  0.8296  0.0231  -4.9887   0.0000   0.0000   0.0000   0.1656
  -8.400  -0.6593   0.02470   0.02042  -0.0498  0.8236  0.0233  -4.8034   0.0000   0.0000   0.0000   0.1637
  -8.200  -0.6379   0.02490   0.02064  -0.0498  0.8216  0.0235  -4.6144   0.0000   0.0000   0.0000   0.1614
  -8.000  -0.6130   0.02580   0.02159  -0.0502  0.8194  0.0237  -4.3923   0.0000   0.0000   0.0000   0.1578
  -7.800  -0.5914   0.02607   0.02189  -0.0502  0.8165  0.0239  -4.2058   0.0000   0.0000   0.0000   0.1550
  -7.600  -0.5692   0.02651   0.02234  -0.0502  0.8131  0.0240  -4.0149   0.0000   0.0000   0.0000   0.1518
  -7.400  -0.5729   0.02238   0.01788  -0.0476  0.8089  0.0274  -4.0144   0.0000   0.0000   0.0000   0.1571
  -7.200  -0.5528   0.02242   0.01793  -0.0475  0.8048  0.0281  -3.8369   0.0000   0.0000   0.0000   0.1545
  -7.000  -0.5322   0.02250   0.01803  -0.0474  0.8002  0.0289  -3.6590   0.0000   0.0000   0.0000   0.1514
  -6.800  -0.5118   0.02258   0.01812  -0.0474  0.7947  0.0298  -3.4857   0.0000   0.0000   0.0000   0.1480
  -6.600  -0.4915   0.02268   0.01822  -0.0473  0.7902  0.0310  -3.3175   0.0000   0.0000   0.0000   0.1445
  -6.400  -0.4701   0.02287   0.01844  -0.0473  0.7887  0.0328  -3.1494   0.0000   0.0000   0.0000   0.1401
  -6.200  -0.4457   0.02365   0.01928  -0.0477  0.7865  0.0351  -2.9650   0.0000   0.0000   0.0000   0.1339
  -6.000  -0.4114   0.02683   0.02267  -0.0492  0.7834  0.0374  -2.6924   0.0000   0.0000   0.0000   0.1213
  -5.600  -0.3745   0.02558   0.02126  -0.0480  0.7749  0.0377  -2.4915   0.0000   0.0000   0.0000   0.1127
  -5.400  -0.3572   0.02458   0.02012  -0.0473  0.7697  0.0377  -2.3956   0.0000   0.0000   0.0000   0.1085
  -5.200  -0.3393   0.02373   0.01916  -0.0466  0.7638  0.0378  -2.3016   0.0000   0.0000   0.0000   0.1035
  -5.000  -0.3211   0.02287   0.01820  -0.0460  0.7575  0.0378  -2.2078   0.0000   0.0000   0.0000   0.0976
  -4.800  -0.3024   0.02199   0.01724  -0.0455  0.7551  0.0378  -2.1136   0.0000   0.0000   0.0000   0.0905
  -4.600  -0.2834   0.02111   0.01630  -0.0449  0.7529  0.0379  -2.0197   0.0000   0.0000   0.0000   0.0822
  -4.400  -0.2642   0.02026   0.01537  -0.0444  0.7498  0.0379  -1.9260   0.0000   0.0000   0.0000   0.0725
  -4.200  -0.2448   0.01944   0.01447  -0.0439  0.7458  0.0379  -1.8326   0.0000   0.0000   0.0000   0.0610
  -4.000  -0.2251   0.01864   0.01360  -0.0434  0.7408  0.0379  -1.7398   0.0000   0.0000   0.0000   0.0472
  -3.800  -0.2053   0.01789   0.01275  -0.0430  0.7349  0.0379  -1.6477   0.0000   0.0000   0.0000   0.0307
  -3.600  -0.1854   0.01716   0.01193  -0.0425  0.7277  0.0379  -1.5735   0.0000   0.0000   0.0000   0.0103
  -3.400  -0.1651   0.01645   0.01114  -0.0421  0.7203  0.0379  -1.5167   0.0000   0.0000   0.0000  -0.0159
  -3.200  -0.1442   0.01572   0.01037  -0.0418  0.7177  0.0380  -1.4595   0.0000   0.0000   0.0000  -0.0517
  -3.000  -0.1231   0.01501   0.00962  -0.0416  0.7134  0.0380  -1.4027   0.0000   0.0000   0.0000  -0.1003
  -2.800  -0.1019   0.01431   0.00886  -0.0413  0.7069  0.0380  -1.3473   0.0000   0.0000   0.0000  -0.1693
  -2.400  -0.0703   0.00963   0.00388  -0.0382  0.6895  0.0311  -1.5138   0.0000   0.0000   0.0000  -0.3108
  -2.200  -0.0520   0.00916   0.00335  -0.0372  0.6818  0.0302  -1.4823   0.0000   0.0000   0.0000  -0.4861
  -2.000  -0.0327   0.00881   0.00293  -0.0365  0.6755  0.0296  -1.4386   0.0000   0.0000   0.0000  -0.8960
  -1.800  -0.0127   0.00858   0.00260  -0.0359  0.6653  0.0292  -1.3840   0.0000   0.0000   0.0000  -2.6322
  -1.600   0.0073   0.00844   0.00236  -0.0353  0.6506  0.0290  -1.3232   0.0000   0.0000   0.0000   5.2123
  -1.400   0.0282   0.00830   0.00217  -0.0349  0.6400  0.0289  -1.2574   0.0000   0.0000   0.0000   1.5085
  -1.200   0.0490   0.00821   0.00200  -0.0345  0.6244  0.0290  -1.1915   0.0000   0.0000   0.0000   0.9650
  -1.000   0.0694   0.00817   0.00186  -0.0341  0.6054  0.0294  -1.1275   0.0000   0.0000   0.0000   0.7458
  -0.800   0.0904   0.00809   0.00172  -0.0337  0.5920  0.0308  -1.0682   0.0000   0.0000   0.0000   0.6253
  -0.600   0.1110   0.00810   0.00167  -0.0333  0.5734  0.0359  -1.0035   0.0000   0.0000   0.0000   0.5510
  -0.400   0.1332   0.00812   0.00170  -0.0333  0.5635  0.0374  -0.9165   0.0000   0.0000   0.0000   0.4997
  -0.200   0.1552   0.00816   0.00173  -0.0333  0.5534  0.0379  -0.8308   0.0000   0.0000   0.0000   0.4632
   0.000   0.1765   0.00821   0.00174  -0.0331  0.5395  0.0386  -0.7519   0.0000   0.0000   0.0000   0.4356
   0.200   0.1978   0.00816   0.00164  -0.0329  0.5294  0.0406  -0.6831   0.0000   0.0000   0.0000   0.4137
   0.400   0.2198   0.00812   0.00158  -0.0327  0.5247  0.0422  -0.6721   0.0000   0.0000   0.0000   0.3962
   0.600   0.2417   0.00810   0.00154  -0.0326  0.5193  0.0437  -0.6941   0.0000   0.0000   0.0000   0.3819
   0.800   0.2634   0.00810   0.00151  -0.0325  0.5134  0.0455  -0.7161   0.0000   0.0000   0.0000   0.3699
   1.000   0.2848   0.00811   0.00150  -0.0323  0.5053  0.0483  -0.7380   0.0000   0.0000   0.0000   0.3597
   1.200   0.3059   0.00812   0.00149  -0.0320  0.4922  0.0536  -0.7598   0.0000   0.0000   0.0000   0.3508
   1.400   0.3138   0.00696   0.00135  -0.0294  0.4880  0.4050  -0.7734   0.0000   0.0000   0.0000   0.3395
   1.600   0.3290   0.00654   0.00134  -0.0280  0.4785  0.5446  -0.7919   0.0000   0.0000   0.0000   0.3308
   1.800   0.3450   0.00633   0.00139  -0.0268  0.4660  0.6481  -0.8128   0.0000   0.0000   0.0000   0.3229
   2.000   0.3638   0.00627   0.00144  -0.0260  0.4539  0.6956  -0.8361   0.0000   0.0000   0.0000   0.3166
   2.200   0.3845   0.00620   0.00147  -0.0256  0.4511  0.7283  -0.8609   0.0000   0.0000   0.0000   0.3116
   2.400   0.4047   0.00614   0.00150  -0.0251  0.4461  0.7604  -0.8855   0.0000   0.0000   0.0000   0.3069
   2.600   0.4227   0.00605   0.00154  -0.0241  0.4378  0.8060  -0.9087   0.0000   0.0000   0.0000   0.3017
   2.800   0.4404   0.00599   0.00162  -0.0230  0.4256  0.8652  -0.9318   0.0000   0.0000   0.0000   0.2968
   3.000   0.4637   0.00600   0.00169  -0.0232  0.4148  0.8968  -0.9587   0.0000   0.0000   0.0000   0.2945
   3.200   0.4899   0.00604   0.00174  -0.0242  0.4036  0.9145  -0.9878   0.0000   0.0000   0.0000   0.2935
   3.600   0.5775   0.00721   0.00225  -0.0352  0.2573  0.9418  -1.1062   0.0000   0.0000   0.0000   0.3051
   3.800   0.6234   0.00919   0.00328  -0.0422  0.0522  0.9545  -1.2476   0.0000   0.0000   0.0000   0.3118
   4.000   0.6562   0.00957   0.00355  -0.0448  0.0293  0.9577  -1.3667   0.0000   0.0000   0.0000   0.3122
   4.400   0.7189   0.00996   0.00390  -0.0490  0.0240  0.9660  -1.6116   0.0000   0.0000   0.0000   0.3118
   4.600   0.7451   0.01014   0.00405  -0.0500  0.0227  0.9784  -1.7329   0.0000   0.0000   0.0000   0.3105
   5.000   0.7880   0.01081   0.00472  -0.0498  0.0164  0.9974  -1.8818   0.0000   0.0000   0.0000   0.3062
   5.200   0.8168   0.01105   0.00499  -0.0514  0.0162  0.9984  -1.9900   0.0000   0.0000   0.0000   0.3058
   5.400   0.8459   0.01131   0.00526  -0.0531  0.0162  0.9995  -2.1030   0.0000   0.0000   0.0000   0.3054
   5.600   0.8700   0.01156   0.00557  -0.0537  0.0163  1.0000  -2.2092   0.0000   0.0000   0.0000   0.3041
   5.800   0.8871   0.01182   0.00584  -0.0527  0.0164  1.0000  -2.2999   0.0000   0.0000   0.0000   0.3016
   6.000   0.9041   0.01210   0.00614  -0.0517  0.0166  1.0000  -2.3896   0.0000   0.0000   0.0000   0.2992
   6.200   0.9210   0.01241   0.00648  -0.0507  0.0167  1.0000  -2.4776   0.0000   0.0000   0.0000   0.2969
   6.400   0.9373   0.01276   0.00687  -0.0496  0.0170  1.0000  -2.5613   0.0000   0.0000   0.0000   0.2946
   6.600   0.9527   0.01319   0.00734  -0.0484  0.0173  1.0000  -2.6354   0.0000   0.0000   0.0000   0.2922
   6.800   0.9665   0.01372   0.00795  -0.0468  0.0178  1.0000  -2.6937   0.0000   0.0000   0.0000   0.2896
   7.000   0.9777   0.01441   0.00873  -0.0448  0.0184  1.0000  -2.7325   0.0000   0.0000   0.0000   0.2867
   7.200   0.9859   0.01527   0.00967  -0.0422  0.0193  1.0000  -2.7555   0.0000   0.0000   0.0000   0.2835
   7.400   0.9913   0.01631   0.01080  -0.0392  0.0204  1.0000  -2.7609   0.0000   0.0000   0.0000   0.2800
   7.600   0.9937   0.01763   0.01219  -0.0357  0.0218  1.0000  -2.7498   0.0000   0.0000   0.0000   0.2761
   9.200   1.1360   0.03058   0.02544  -0.0315  0.0243  1.0000  -3.1422   0.0000   0.0000   0.0000   0.2661
   9.800   1.1787   0.03437   0.02947  -0.0285  0.0243  1.0000  -3.3571   0.0000   0.0000   0.0000   0.2618
  10.000   1.1911   0.03569   0.03086  -0.0273  0.0243  1.0000  -3.4259   0.0000   0.0000   0.0000   0.2602
  10.200   1.2025   0.03702   0.03228  -0.0260  0.0243  1.0000  -3.4927   0.0000   0.0000   0.0000   0.2586
  10.400   1.2129   0.03838   0.03372  -0.0246  0.0243  1.0000  -3.5574   0.0000   0.0000   0.0000   0.2570
  10.600   1.2222   0.03977   0.03518  -0.0230  0.0243  1.0000  -3.6199   0.0000   0.0000   0.0000   0.2553
  10.800   1.2303   0.04117   0.03667  -0.0213  0.0242  1.0000  -3.6798   0.0000   0.0000   0.0000   0.2535
  11.000   1.2372   0.04259   0.03818  -0.0195  0.0242  1.0000  -3.7369   0.0000   0.0000   0.0000   0.2517
  11.200   1.2427   0.04403   0.03971  -0.0176  0.0242  1.0000  -3.7907   0.0000   0.0000   0.0000   0.2498
  11.400   1.2467   0.04549   0.04125  -0.0155  0.0242  1.0000  -3.8409   0.0000   0.0000   0.0000   0.2477
  11.600   1.2490   0.04695   0.04281  -0.0132  0.0242  1.0000  -3.8870   0.0000   0.0000   0.0000   0.2456
  11.800   1.2501   0.04848   0.04442  -0.0108  0.0242  1.0000  -3.9502   0.0000   0.0000   0.0000   0.2434
  12.000   1.2464   0.04986   0.04588  -0.0076  0.0242  1.0000  -4.0025   0.0000   0.0000   0.0000   0.2405
  12.200   1.2386   0.05111   0.04721  -0.0038  0.0242  1.0000  -4.0407   0.0000   0.0000   0.0000   0.2372
  12.400   1.2310   0.05250   0.04869  -0.0006  0.0242  1.0000  -4.0782   0.0000   0.0000   0.0000   0.2342
  12.600   1.2237   0.05406   0.05034   0.0022  0.0242  1.0000  -4.1153   0.0000   0.0000   0.0000   0.2316
  12.800   1.2158   0.05573   0.05209   0.0047  0.0241  1.0000  -4.1488   0.0000   0.0000   0.0000   0.2292
  13.000   1.2077   0.05756   0.05401   0.0068  0.0241  1.0000  -4.1799   0.0000   0.0000   0.0000   0.2271
  13.200   1.1992   0.05954   0.05609   0.0086  0.0241  1.0000  -4.2079   0.0000   0.0000   0.0000   0.2251
  13.400   1.1895   0.06165   0.05829   0.0102  0.0241  1.0000  -4.2301   0.0000   0.0000   0.0000   0.2233
  13.600   1.1786   0.06390   0.06063   0.0117  0.0241  1.0000  -4.2462   0.0000   0.0000   0.0000   0.2216
  13.800   1.1675   0.06637   0.06318   0.0127  0.0241  1.0000  -4.2595   0.0000   0.0000   0.0000   0.2202
  14.000   1.1562   0.06902   0.06593   0.0135  0.0241  1.0000  -4.2693   0.0000   0.0000   0.0000   0.2190
  14.200   1.1434   0.07191   0.06891   0.0139  0.0241  1.0000  -4.2710   0.0000   0.0000   0.0000   0.2181
  14.400   1.1300   0.07500   0.07209   0.0140  0.0241  1.0000  -4.2673   0.0000   0.0000   0.0000   0.2174
  14.600   1.1161   0.07824   0.07543   0.0138  0.0241  1.0000  -4.2588   0.0000   0.0000   0.0000   0.2169
  14.800   1.1003   0.08167   0.07895   0.0134  0.0241  1.0000  -4.2397   0.0000   0.0000   0.0000   0.2167
  15.000   1.0840   0.08551   0.08289   0.0125  0.0241  1.0000  -4.2135   0.0000   0.0000   0.0000   0.2169


