xflr5 v6.61

 Calculated polar for: SA7036

 1 1 Reynolds number fixed          Mach number fixed         

 xtrf =   1.000 (top)        1.000 (bottom)
 Mach =   0.000     Re =     1.500 e 6     Ncrit =   9.000

  alpha     CL        CD       CDp       Cm    Top Xtr Bot Xtr   Cpmin    Chinge    XCp    
 ------- -------- --------- --------- -------- ------- ------- -------- --------- ---------
  -9.800  -0.4140   0.10518   0.10378  -0.0175  1.0000  0.0043  -2.2427   0.0000   0.0000   0.0000   0.2012
  -9.600  -0.4096   0.10260   0.10120  -0.0187  1.0000  0.0045  -2.2027   0.0000   0.0000   0.0000   0.1979
  -9.400  -0.4050   0.10012   0.09872  -0.0199  1.0000  0.0048  -2.1458   0.0000   0.0000   0.0000   0.1945
  -9.200  -0.4013   0.09739   0.09600  -0.0212  1.0000  0.0051  -2.1318   0.0000   0.0000   0.0000   0.1910
  -9.000  -0.3980   0.09464   0.09326  -0.0225  1.0000  0.0054  -2.1249   0.0000   0.0000   0.0000   0.1873
  -8.800  -0.3949   0.09186   0.09048  -0.0239  1.0000  0.0057  -2.1247   0.0000   0.0000   0.0000   0.1836
  -8.600  -0.3918   0.08898   0.08762  -0.0254  1.0000  0.0060  -2.1308   0.0000   0.0000   0.0000   0.1794
  -8.400  -0.3891   0.08608   0.08473  -0.0269  1.0000  0.0064  -2.1445   0.0000   0.0000   0.0000   0.1752
  -8.200  -0.3868   0.08317   0.08183  -0.0285  1.0000  0.0069  -2.1658   0.0000   0.0000   0.0000   0.1709
  -8.000  -0.3844   0.08025   0.07893  -0.0301  1.0000  0.0074  -2.1923   0.0000   0.0000   0.0000   0.1664
  -7.800  -0.3813   0.07761   0.07631  -0.0315  1.0000  0.0080  -2.2076   0.0000   0.0000   0.0000   0.1622
  -7.600  -0.3772   0.07588   0.07461  -0.0318  0.9974  0.0085  -2.1631   0.0000   0.0000   0.0000   0.1605
  -7.400  -0.3597   0.07233   0.07106  -0.0374  0.9921  0.0088  -2.1276   0.0000   0.0000   0.0000   0.1409
  -7.200  -0.3420   0.06745   0.06617  -0.0458  0.9850  0.0089  -2.1582   0.0000   0.0000   0.0000   0.1110
  -7.000  -0.3246   0.06187   0.06056  -0.0552  0.9755  0.0090  -2.2224   0.0000   0.0000   0.0000   0.0749
  -6.800  -0.3125   0.05666   0.05529  -0.0618  0.9644  0.0090  -2.3025   0.0000   0.0000   0.0000   0.0473
  -6.600  -0.3030   0.05193   0.05047  -0.0658  0.9545  0.0090  -2.3831   0.0000   0.0000   0.0000   0.0276
  -6.400  -0.2934   0.04745   0.04588  -0.0686  0.9458  0.0090  -2.4608   0.0000   0.0000   0.0000   0.0108
  -6.200  -0.2831   0.04326   0.04154  -0.0705  0.9376  0.0091  -2.5324   0.0000   0.0000   0.0000  -0.0043
  -6.000  -0.2710   0.03920   0.03733  -0.0720  0.9309  0.0091  -2.5963   0.0000   0.0000   0.0000  -0.0212
  -5.800  -0.2587   0.03547   0.03341  -0.0728  0.9231  0.0091  -2.6489   0.0000   0.0000   0.0000  -0.0371
  -5.600  -0.2455   0.03193   0.02965  -0.0733  0.9159  0.0091  -2.6913   0.0000   0.0000   0.0000  -0.0546
  -5.400  -0.2304   0.02858   0.02607  -0.0737  0.9096  0.0091  -2.7176   0.0000   0.0000   0.0000  -0.0762
  -5.200  -0.2145   0.02549   0.02273  -0.0738  0.9026  0.0091  -2.7309   0.0000   0.0000   0.0000  -0.1003
  -5.000  -0.1981   0.02249   0.01944  -0.0736  0.8960  0.0091  -2.7441   0.0000   0.0000   0.0000  -0.1282
  -4.800  -0.1913   0.00890   0.00415  -0.0708  0.8899  0.0039  -4.3832   0.0000   0.0000   0.0000  -0.1281
  -4.600  -0.1695   0.00836   0.00351  -0.0706  0.8849  0.0038  -4.1411   0.0000   0.0000   0.0000  -0.1748
  -4.400  -0.1478   0.00791   0.00294  -0.0704  0.8788  0.0040  -3.8816   0.0000   0.0000   0.0000  -0.2349
  -4.200  -0.1261   0.00756   0.00250  -0.0701  0.8717  0.0046  -3.5783   0.0000   0.0000   0.0000  -0.3154
  -4.000  -0.1038   0.00742   0.00236  -0.0700  0.8656  0.0057  -3.2511   0.0000   0.0000   0.0000  -0.4357
  -3.800  -0.0813   0.00734   0.00229  -0.0700  0.8591  0.0067  -2.9699   0.0000   0.0000   0.0000  -0.6240
  -3.600  -0.0591   0.00728   0.00223  -0.0700  0.8513  0.0076  -2.7164   0.0000   0.0000   0.0000  -0.9502
  -3.400  -0.0372   0.00725   0.00218  -0.0699  0.8416  0.0082  -2.4772   0.0000   0.0000   0.0000  -1.6539
  -3.200  -0.0147   0.00700   0.00183  -0.0698  0.8347  0.0080  -2.3666   0.0000   0.0000   0.0000  -4.5646
  -3.000   0.0076   0.00696   0.00177  -0.0697  0.8245  0.0085  -2.1471   0.0000   0.0000   0.0000   9.5366
  -2.800   0.0295   0.00695   0.00174  -0.0696  0.8122  0.0088  -1.9311   0.0000   0.0000   0.0000   2.6339
  -2.600   0.0520   0.00692   0.00173  -0.0697  0.8037  0.0090  -1.7208   0.0000   0.0000   0.0000   1.6004
  -2.400   0.0743   0.00691   0.00171  -0.0696  0.7924  0.0092  -1.5253   0.0000   0.0000   0.0000   1.1944
  -2.000   0.1189   0.00662   0.00123  -0.0694  0.7689  0.0102  -1.2949   0.0000   0.0000   0.0000   0.8372
  -1.800   0.1404   0.00621   0.00095  -0.0692  0.7532  0.0739  -1.2736   0.0000   0.0000   0.0000   0.7451
  -1.600   0.1623   0.00593   0.00087  -0.0693  0.7417  0.1408  -1.1271   0.0000   0.0000   0.0000   0.6784
  -1.400   0.1836   0.00551   0.00081  -0.0693  0.7292  0.2583  -0.9865   0.0000   0.0000   0.0000   0.6288
  -1.200   0.2049   0.00527   0.00077  -0.0693  0.7132  0.3488  -0.8483   0.0000   0.0000   0.0000   0.5889
  -1.000   0.2287   0.00571   0.00071  -0.0692  0.7007  0.2226  -0.6876   0.0000   0.0000   0.0000   0.5528
  -0.800   0.2503   0.00560   0.00069  -0.0692  0.6833  0.2762  -0.5624   0.0000   0.0000   0.0000   0.5262
  -0.600   0.2724   0.00546   0.00067  -0.0692  0.6717  0.3321  -0.5182   0.0000   0.0000   0.0000   0.5037
  -0.400   0.2940   0.00530   0.00066  -0.0692  0.6554  0.4077  -0.5386   0.0000   0.0000   0.0000   0.4848
  -0.200   0.3156   0.00514   0.00067  -0.0692  0.6400  0.4863  -0.5604   0.0000   0.0000   0.0000   0.4684
   0.000   0.3376   0.00501   0.00069  -0.0692  0.6285  0.5497  -0.5825   0.0000   0.0000   0.0000   0.4540
   0.200   0.3591   0.00494   0.00071  -0.0691  0.6125  0.6137  -0.6044   0.0000   0.0000   0.0000   0.4412
   0.400   0.3807   0.00480   0.00075  -0.0690  0.6012  0.6870  -0.6266   0.0000   0.0000   0.0000   0.4299
   0.600   0.4016   0.00469   0.00079  -0.0687  0.5856  0.7605  -0.6485   0.0000   0.0000   0.0000   0.4195
   0.800   0.4218   0.00463   0.00084  -0.0682  0.5661  0.8242  -0.6739   0.0000   0.0000   0.0000   0.4101
   1.000   0.4408   0.00457   0.00089  -0.0674  0.5499  0.8856  -0.7002   0.0000   0.0000   0.0000   0.4010
   1.200   0.4577   0.00457   0.00094  -0.0660  0.5320  0.9409  -0.7251   0.0000   0.0000   0.0000   0.3922
   1.400   0.4814   0.00457   0.00096  -0.0662  0.5228  0.9753  -0.7550   0.0000   0.0000   0.0000   0.3853
   1.600   0.5110   0.00467   0.00099  -0.0679  0.5059  0.9947  -0.7894   0.0000   0.0000   0.0000   0.3804
   1.800   0.5352   0.00477   0.00102  -0.0683  0.4901  1.0000  -0.8226   0.0000   0.0000   0.0000   0.3752
   2.000   0.5568   0.00489   0.00106  -0.0682  0.4741  1.0000  -0.8552   0.0000   0.0000   0.0000   0.3699
   2.200   0.5784   0.00502   0.00111  -0.0681  0.4565  1.0000  -0.8880   0.0000   0.0000   0.0000   0.3650
   2.400   0.6005   0.00509   0.00115  -0.0681  0.4469  1.0000  -0.9214   0.0000   0.0000   0.0000   0.3605
   2.600   0.6220   0.00523   0.00121  -0.0680  0.4312  1.0000  -0.9547   0.0000   0.0000   0.0000   0.3563
   2.800   0.6439   0.00535   0.00127  -0.0680  0.4168  1.0000  -0.9950   0.0000   0.0000   0.0000   0.3523
   3.000   0.6653   0.00551   0.00134  -0.0679  0.3980  1.0000  -1.0387   0.0000   0.0000   0.0000   0.3486
   3.200   0.6869   0.00566   0.00141  -0.0678  0.3794  1.0000  -1.0829   0.0000   0.0000   0.0000   0.3452
   3.400   0.7086   0.00579   0.00148  -0.0678  0.3657  1.0000  -1.1276   0.0000   0.0000   0.0000   0.3419
   3.600   0.7301   0.00596   0.00157  -0.0677  0.3483  1.0000  -1.1725   0.0000   0.0000   0.0000   0.3388
   3.800   0.7520   0.00606   0.00164  -0.0677  0.3393  1.0000  -1.2214   0.0000   0.0000   0.0000   0.3359
   4.000   0.7733   0.00625   0.00174  -0.0676  0.3222  1.0000  -1.2740   0.0000   0.0000   0.0000   0.3331
   4.200   0.7949   0.00639   0.00183  -0.0675  0.3080  1.0000  -1.3279   0.0000   0.0000   0.0000   0.3305
   4.400   0.8118   0.00713   0.00216  -0.0669  0.2238  1.0000  -1.3810   0.0000   0.0000   0.0000   0.3278
   4.600   0.8307   0.00762   0.00239  -0.0666  0.1748  1.0000  -1.4407   0.0000   0.0000   0.0000   0.3253
   4.800   0.8504   0.00801   0.00260  -0.0663  0.1441  1.0000  -1.5053   0.0000   0.0000   0.0000   0.3230
   5.000   0.8699   0.00843   0.00283  -0.0660  0.1109  1.0000  -1.5796   0.0000   0.0000   0.0000   0.3207
   5.200   0.8886   0.00896   0.00313  -0.0656  0.0751  1.0000  -1.6647   0.0000   0.0000   0.0000   0.3185
   5.400   0.9083   0.00935   0.00339  -0.0654  0.0523  1.0000  -1.7582   0.0000   0.0000   0.0000   0.3164
   5.600   0.9278   0.00977   0.00368  -0.0650  0.0327  1.0000  -1.8526   0.0000   0.0000   0.0000   0.3143
   5.800   0.9474   0.01017   0.00398  -0.0647  0.0165  1.0000  -1.9501   0.0000   0.0000   0.0000   0.3123
   6.000   0.9677   0.01046   0.00422  -0.0645  0.0094  1.0000  -2.0544   0.0000   0.0000   0.0000   0.3104
   6.200   0.9879   0.01078   0.00449  -0.0643  0.0038  1.0000  -2.1745   0.0000   0.0000   0.0000   0.3086
   6.400   1.0087   0.01098   0.00468  -0.0641  0.0033  1.0000  -2.3643   0.0000   0.0000   0.0000   0.3069
   6.600   1.0296   0.01117   0.00485  -0.0640  0.0028  1.0000  -2.5651   0.0000   0.0000   0.0000   0.3053
   6.800   1.0506   0.01133   0.00509  -0.0639  0.0039  1.0000  -2.7202   0.0000   0.0000   0.0000   0.3037
   7.000   1.0712   0.01155   0.00531  -0.0637  0.0034  1.0000  -2.9244   0.0000   0.0000   0.0000   0.3021
   7.200   1.0917   0.01178   0.00552  -0.0636  0.0027  1.0000  -3.1557   0.0000   0.0000   0.0000   0.3006
   7.400   1.1120   0.01203   0.00576  -0.0633  0.0017  1.0000  -3.4341   0.0000   0.0000   0.0000   0.2991
   7.600   1.1322   0.01229   0.00605  -0.0631  0.0014  1.0000  -3.7568   0.0000   0.0000   0.0000   0.2976
   7.800   1.1523   0.01256   0.00636  -0.0628  0.0013  1.0000  -4.0614   0.0000   0.0000   0.0000   0.2961
   8.000   1.1722   0.01285   0.00670  -0.0625  0.0013  1.0000  -4.3597   0.0000   0.0000   0.0000   0.2946
   8.200   1.1918   0.01317   0.00707  -0.0621  0.0013  1.0000  -4.6560   0.0000   0.0000   0.0000   0.2932
   8.400   1.2110   0.01352   0.00748  -0.0617  0.0013  1.0000  -4.9523   0.0000   0.0000   0.0000   0.2918
   8.600   1.2299   0.01392   0.00794  -0.0613  0.0013  1.0000  -5.2491   0.0000   0.0000   0.0000   0.2903
   8.800   1.2483   0.01435   0.00843  -0.0608  0.0014  1.0000  -5.5476   0.0000   0.0000   0.0000   0.2889
   9.000   1.2664   0.01481   0.00896  -0.0602  0.0015  1.0000  -5.8468   0.0000   0.0000   0.0000   0.2875
   9.200   1.2837   0.01535   0.00961  -0.0595  0.0016  1.0000  -6.1552   0.0000   0.0000   0.0000   0.2860
   9.400   1.3002   0.01597   0.01031  -0.0587  0.0018  1.0000  -6.4381   0.0000   0.0000   0.0000   0.2845
   9.600   1.3147   0.01681   0.01131  -0.0575  0.0021  1.0000  -6.6512   0.0000   0.0000   0.0000   0.2828
   9.800   1.3204   0.01860   0.01341  -0.0547  0.0028  1.0000  -6.6080   0.0000   0.0000   0.0000   0.2802
  10.000   1.3171   0.02128   0.01637  -0.0504  0.0048  1.0000  -6.3637   0.0000   0.0000   0.0000   0.2768


