xflr5 v6.61

 Calculated polar for: SA7036

 1 1 Reynolds number fixed          Mach number fixed         

 xtrf =   1.000 (top)        1.000 (bottom)
 Mach =   0.000     Re =     1.000 e 6     Ncrit =   9.000

  alpha     CL        CD       CDp       Cm    Top Xtr Bot Xtr   Cpmin    Chinge    XCp    
 ------- -------- --------- --------- -------- ------- ------- -------- --------- ---------
  -9.800  -0.3958   0.10988   0.10815  -0.0172  1.0000  0.0090  -1.7624   0.0000   0.0000   0.0000   0.1998
  -9.600  -0.3914   0.10698   0.10525  -0.0185  1.0000  0.0090  -1.7776   0.0000   0.0000   0.0000   0.1961
  -9.400  -0.3872   0.10406   0.10234  -0.0198  1.0000  0.0090  -1.7948   0.0000   0.0000   0.0000   0.1923
  -9.200  -0.3832   0.10113   0.09942  -0.0212  1.0000  0.0090  -1.8140   0.0000   0.0000   0.0000   0.1884
  -9.000  -0.3795   0.09820   0.09650  -0.0225  1.0000  0.0090  -1.8352   0.0000   0.0000   0.0000   0.1845
  -8.800  -0.3761   0.09528   0.09359  -0.0239  1.0000  0.0091  -1.8586   0.0000   0.0000   0.0000   0.1805
  -8.600  -0.3729   0.09233   0.09065  -0.0253  1.0000  0.0091  -1.8840   0.0000   0.0000   0.0000   0.1763
  -8.400  -0.3697   0.08933   0.08767  -0.0267  1.0000  0.0091  -1.9115   0.0000   0.0000   0.0000   0.1718
  -8.200  -0.3670   0.08634   0.08470  -0.0282  1.0000  0.0091  -1.9417   0.0000   0.0000   0.0000   0.1673
  -8.000  -0.3648   0.08336   0.08173  -0.0298  1.0000  0.0091  -1.9747   0.0000   0.0000   0.0000   0.1629
  -7.800  -0.3633   0.08037   0.07877  -0.0313  1.0000  0.0091  -2.0109   0.0000   0.0000   0.0000   0.1585
  -7.600  -0.3639   0.07756   0.07598  -0.0324  1.0000  0.0091  -2.0505   0.0000   0.0000   0.0000   0.1556
  -7.400  -0.3735   0.07574   0.07421  -0.0313  0.9999  0.0091  -2.0919   0.0000   0.0000   0.0000   0.1613
  -7.200  -0.3579   0.07055   0.06902  -0.0393  0.9943  0.0091  -2.1501   0.0000   0.0000   0.0000   0.1353
  -7.000  -0.3377   0.06435   0.06280  -0.0499  0.9902  0.0091  -2.2312   0.0000   0.0000   0.0000   0.0972
  -6.800  -0.3159   0.05756   0.05594  -0.0605  0.9855  0.0091  -2.3373   0.0000   0.0000   0.0000   0.0535
  -6.600  -0.2973   0.05137   0.04965  -0.0678  0.9791  0.0091  -2.4479   0.0000   0.0000   0.0000   0.0164
  -6.400  -0.2810   0.04593   0.04406  -0.0728  0.9723  0.0091  -2.5500   0.0000   0.0000   0.0000  -0.0145
  -6.200  -0.2708   0.04169   0.03967  -0.0746  0.9630  0.0091  -2.6297   0.0000   0.0000   0.0000  -0.0313
  -6.000  -0.2600   0.03782   0.03560  -0.0758  0.9554  0.0091  -2.6938   0.0000   0.0000   0.0000  -0.0473
  -5.800  -0.2488   0.03429   0.03187  -0.0763  0.9479  0.0091  -2.7407   0.0000   0.0000   0.0000  -0.0626
  -5.600  -0.2364   0.03100   0.02835  -0.0763  0.9412  0.0091  -2.7724   0.0000   0.0000   0.0000  -0.0791
  -5.400  -0.2225   0.02780   0.02490  -0.0763  0.9351  0.0091  -2.7964   0.0000   0.0000   0.0000  -0.0996
  -5.200  -0.2188   0.01700   0.01305  -0.0757  0.9265  0.0066  -3.6523   0.0000   0.0000   0.0000  -0.1033
  -5.000  -0.2016   0.01324   0.00873  -0.0743  0.9205  0.0055  -3.9217   0.0000   0.0000   0.0000  -0.1262
  -4.800  -0.1825   0.01121   0.00640  -0.0734  0.9148  0.0051  -3.9520   0.0000   0.0000   0.0000  -0.1601
  -4.600  -0.1622   0.01008   0.00509  -0.0727  0.9088  0.0051  -3.8280   0.0000   0.0000   0.0000  -0.2068
  -4.400  -0.1415   0.00938   0.00426  -0.0722  0.9028  0.0053  -3.6221   0.0000   0.0000   0.0000  -0.2694
  -4.200  -0.1204   0.00892   0.00369  -0.0718  0.8973  0.0058  -3.3609   0.0000   0.0000   0.0000  -0.3564
  -4.000  -0.0986   0.00866   0.00340  -0.0716  0.8922  0.0069  -3.0671   0.0000   0.0000   0.0000  -0.4876
  -3.800  -0.0764   0.00857   0.00332  -0.0716  0.8866  0.0080  -2.7822   0.0000   0.0000   0.0000  -0.7001
  -3.600  -0.0544   0.00860   0.00338  -0.0715  0.8797  0.0086  -2.5003   0.0000   0.0000   0.0000  -1.0821
  -3.400  -0.0325   0.00870   0.00349  -0.0713  0.8724  0.0090  -2.2337   0.0000   0.0000   0.0000  -1.9742
  -3.200  -0.0109   0.00824   0.00290  -0.0711  0.8659  0.0089  -2.1448   0.0000   0.0000   0.0000  -6.3620
  -2.800   0.0330   0.00780   0.00238  -0.0708  0.8498  0.0101  -1.8060   0.0000   0.0000   0.0000   2.4155
  -2.600   0.0547   0.00756   0.00202  -0.0705  0.8403  0.0109  -1.6880   0.0000   0.0000   0.0000   1.5500
  -2.400   0.0771   0.00737   0.00178  -0.0704  0.8319  0.0117  -1.5664   0.0000   0.0000   0.0000   1.1699
  -2.200   0.0992   0.00724   0.00155  -0.0702  0.8211  0.0128  -1.4530   0.0000   0.0000   0.0000   0.9623
  -1.800   0.1416   0.00616   0.00117  -0.0701  0.8013  0.2105  -1.2727   0.0000   0.0000   0.0000   0.7476
  -1.600   0.1627   0.00582   0.00110  -0.0701  0.7888  0.3091  -1.1285   0.0000   0.0000   0.0000   0.6823
  -1.400   0.1839   0.00553   0.00106  -0.0700  0.7765  0.4028  -0.9869   0.0000   0.0000   0.0000   0.6317
  -1.200   0.2057   0.00536   0.00102  -0.0699  0.7637  0.4620  -0.8462   0.0000   0.0000   0.0000   0.5906
  -1.000   0.2290   0.00575   0.00091  -0.0698  0.7493  0.3570  -0.6850   0.0000   0.0000   0.0000   0.5549
  -0.800   0.2508   0.00556   0.00089  -0.0698  0.7378  0.4246  -0.5591   0.0000   0.0000   0.0000   0.5280
  -0.600   0.2721   0.00540   0.00087  -0.0696  0.7219  0.4989  -0.5179   0.0000   0.0000   0.0000   0.5055
  -0.400   0.2932   0.00519   0.00089  -0.0695  0.7083  0.5897  -0.5379   0.0000   0.0000   0.0000   0.4863
  -0.200   0.3140   0.00500   0.00091  -0.0692  0.6941  0.6802  -0.5593   0.0000   0.0000   0.0000   0.4694
   0.000   0.3340   0.00488   0.00095  -0.0686  0.6777  0.7612  -0.5803   0.0000   0.0000   0.0000   0.4544
   0.200   0.3536   0.00473   0.00099  -0.0679  0.6647  0.8319  -0.6012   0.0000   0.0000   0.0000   0.4408
   0.400   0.3715   0.00468   0.00103  -0.0667  0.6491  0.8907  -0.6213   0.0000   0.0000   0.0000   0.4282
   0.600   0.3902   0.00466   0.00105  -0.0657  0.6375  0.9322  -0.6418   0.0000   0.0000   0.0000   0.4168
   0.800   0.4136   0.00468   0.00105  -0.0657  0.6238  0.9678  -0.6685   0.0000   0.0000   0.0000   0.4072
   1.000   0.4449   0.00476   0.00104  -0.0677  0.6046  0.9926  -0.7033   0.0000   0.0000   0.0000   0.4003
   1.200   0.4707   0.00485   0.00105  -0.0685  0.5866  1.0000  -0.7345   0.0000   0.0000   0.0000   0.3936
   1.400   0.4917   0.00498   0.00108  -0.0683  0.5675  1.0000  -0.7624   0.0000   0.0000   0.0000   0.3867
   1.600   0.5135   0.00506   0.00113  -0.0682  0.5547  1.0000  -0.7911   0.0000   0.0000   0.0000   0.3805
   1.800   0.5347   0.00520   0.00117  -0.0680  0.5380  1.0000  -0.8219   0.0000   0.0000   0.0000   0.3747
   2.000   0.5565   0.00528   0.00120  -0.0680  0.5254  1.0000  -0.8546   0.0000   0.0000   0.0000   0.3695
   2.200   0.5780   0.00541   0.00125  -0.0678  0.5086  1.0000  -0.8873   0.0000   0.0000   0.0000   0.3646
   2.400   0.5994   0.00555   0.00130  -0.0677  0.4909  1.0000  -0.9202   0.0000   0.0000   0.0000   0.3600
   2.600   0.6212   0.00565   0.00136  -0.0676  0.4771  1.0000  -0.9536   0.0000   0.0000   0.0000   0.3558
   2.800   0.6424   0.00582   0.00143  -0.0675  0.4591  1.0000  -0.9930   0.0000   0.0000   0.0000   0.3518
   3.000   0.6644   0.00591   0.00149  -0.0675  0.4486  1.0000  -1.0372   0.0000   0.0000   0.0000   0.3481
   3.200   0.6856   0.00608   0.00157  -0.0673  0.4302  1.0000  -1.0810   0.0000   0.0000   0.0000   0.3446
   3.400   0.7070   0.00623   0.00165  -0.0672  0.4114  1.0000  -1.1254   0.0000   0.0000   0.0000   0.3413
   3.600   0.7280   0.00643   0.00174  -0.0671  0.3908  1.0000  -1.1698   0.0000   0.0000   0.0000   0.3382
   3.800   0.7498   0.00655   0.00183  -0.0670  0.3785  1.0000  -1.2178   0.0000   0.0000   0.0000   0.3353
   4.000   0.7712   0.00671   0.00193  -0.0669  0.3645  1.0000  -1.2708   0.0000   0.0000   0.0000   0.3325
   4.200   0.7924   0.00689   0.00204  -0.0668  0.3476  1.0000  -1.3238   0.0000   0.0000   0.0000   0.3299
   4.400   0.8137   0.00706   0.00221  -0.0667  0.3315  1.0000  -1.3838   0.0000   0.0000   0.0000   0.3274
   4.600   0.8318   0.00761   0.00242  -0.0663  0.2686  1.0000  -1.4426   0.0000   0.0000   0.0000   0.3248
   4.800   0.8498   0.00820   0.00267  -0.0658  0.2108  1.0000  -1.5036   0.0000   0.0000   0.0000   0.3224
   5.000   0.8699   0.00852   0.00285  -0.0656  0.1862  1.0000  -1.5793   0.0000   0.0000   0.0000   0.3202
   5.200   0.8899   0.00885   0.00305  -0.0654  0.1628  1.0000  -1.6699   0.0000   0.0000   0.0000   0.3180
   5.400   0.9097   0.00920   0.00326  -0.0651  0.1393  1.0000  -1.7640   0.0000   0.0000   0.0000   0.3160
   5.600   0.9294   0.00957   0.00349  -0.0649  0.1170  1.0000  -1.8593   0.0000   0.0000   0.0000   0.3140
   5.800   0.9489   0.00996   0.00374  -0.0646  0.0945  1.0000  -1.9552   0.0000   0.0000   0.0000   0.3120
   6.000   0.9686   0.01032   0.00399  -0.0643  0.0777  1.0000  -2.0529   0.0000   0.0000   0.0000   0.3101
   6.200   0.9885   0.01064   0.00423  -0.0641  0.0635  1.0000  -2.1991   0.0000   0.0000   0.0000   0.3083
   6.400   1.0078   0.01104   0.00452  -0.0637  0.0476  1.0000  -2.3805   0.0000   0.0000   0.0000   0.3066
   6.600   1.0263   0.01153   0.00488  -0.0633  0.0303  1.0000  -2.5661   0.0000   0.0000   0.0000   0.3048
   6.800   1.0484   0.01155   0.00506  -0.0633  0.0376  1.0000  -2.7286   0.0000   0.0000   0.0000   0.3033
   7.000   1.0675   0.01196   0.00539  -0.0630  0.0267  1.0000  -2.9213   0.0000   0.0000   0.0000   0.3016
   7.200   1.0862   0.01240   0.00575  -0.0626  0.0162  1.0000  -3.1281   0.0000   0.0000   0.0000   0.3000
   7.400   1.1035   0.01304   0.00629  -0.0620  0.0037  1.0000  -3.3609   0.0000   0.0000   0.0000   0.2983
   7.600   1.1231   0.01336   0.00659  -0.0616  0.0028  1.0000  -3.6332   0.0000   0.0000   0.0000   0.2968
   7.800   1.1426   0.01367   0.00693  -0.0613  0.0022  1.0000  -3.9338   0.0000   0.0000   0.0000   0.2953
   8.000   1.1622   0.01398   0.00729  -0.0610  0.0019  1.0000  -4.2462   0.0000   0.0000   0.0000   0.2938
   8.200   1.1816   0.01431   0.00767  -0.0606  0.0018  1.0000  -4.5513   0.0000   0.0000   0.0000   0.2923
   8.400   1.2007   0.01466   0.00808  -0.0602  0.0018  1.0000  -4.8532   0.0000   0.0000   0.0000   0.2909
   8.600   1.2194   0.01504   0.00853  -0.0597  0.0017  1.0000  -5.1531   0.0000   0.0000   0.0000   0.2895
   8.800   1.2376   0.01548   0.00904  -0.0592  0.0018  1.0000  -5.4504   0.0000   0.0000   0.0000   0.2880
   9.000   1.2553   0.01596   0.00960  -0.0585  0.0018  1.0000  -5.7452   0.0000   0.0000   0.0000   0.2866
   9.200   1.2722   0.01652   0.01029  -0.0578  0.0018  1.0000  -6.0481   0.0000   0.0000   0.0000   0.2851
   9.400   1.2884   0.01714   0.01102  -0.0570  0.0019  1.0000  -6.3286   0.0000   0.0000   0.0000   0.2836
   9.600   1.3034   0.01788   0.01187  -0.0559  0.0020  1.0000  -6.5814   0.0000   0.0000   0.0000   0.2820
   9.800   1.3163   0.01880   0.01295  -0.0545  0.0022  1.0000  -6.7842   0.0000   0.0000   0.0000   0.2802
  10.000   1.3258   0.02001   0.01433  -0.0527  0.0024  1.0000  -6.9254   0.0000   0.0000   0.0000   0.2782
  10.200   1.3312   0.02152   0.01604  -0.0502  0.0027  1.0000  -7.0110   0.0000   0.0000   0.0000   0.2759
  10.400   1.3322   0.02333   0.01805  -0.0472  0.0030  1.0000  -7.0442   0.0000   0.0000   0.0000   0.2734
  10.600   1.3272   0.02534   0.02027  -0.0434  0.0033  1.0000  -7.0240   0.0000   0.0000   0.0000   0.2704
  10.800   1.3167   0.02810   0.02325  -0.0393  0.0036  1.0000  -6.9159   0.0000   0.0000   0.0000   0.2672
  11.000   1.3257   0.02907   0.02426  -0.0375  0.0048  1.0000  -7.0225   0.0000   0.0000   0.0000   0.2654


