xflr5 v6.61

 Calculated polar for: SA7036

 1 1 Reynolds number fixed          Mach number fixed         

 xtrf =   1.000 (top)        1.000 (bottom)
 Mach =   0.000     Re =     3.000 e 6     Ncrit =   9.000

  alpha     CL        CD       CDp       Cm    Top Xtr Bot Xtr   Cpmin    Chinge    XCp    
 ------- -------- --------- --------- -------- ------- ------- -------- --------- ---------
  -6.200  -0.3334   0.02100   0.01849  -0.0723  0.8891  0.0042  -4.9127   0.0000   0.0000   0.0000   0.0271
  -6.000  -0.3121   0.02148   0.01897  -0.0725  0.8832  0.0046  -4.4195   0.0000   0.0000   0.0000   0.0117
  -5.800  -0.2920   0.02113   0.01855  -0.0726  0.8770  0.0050  -4.0687   0.0000   0.0000   0.0000  -0.0047
  -5.600  -0.2719   0.02064   0.01798  -0.0727  0.8694  0.0057  -3.7544   0.0000   0.0000   0.0000  -0.0232
  -5.400  -0.2507   0.02022   0.01751  -0.0727  0.8654  0.0069  -3.4539   0.0000   0.0000   0.0000  -0.0461
  -5.200  -0.2265   0.02149   0.01888  -0.0726  0.8593  0.0085  -3.0313   0.0000   0.0000   0.0000  -0.0769
  -4.800  -0.1961   0.00856   0.00442  -0.0696  0.8409  0.0032  -4.3490   0.0000   0.0000   0.0000  -0.1124
  -4.600  -0.1733   0.00848   0.00434  -0.0696  0.8361  0.0030  -4.0291   0.0000   0.0000   0.0000  -0.1596
  -4.400  -0.1507   0.00836   0.00420  -0.0696  0.8283  0.0028  -3.7267   0.0000   0.0000   0.0000  -0.2200
  -4.000  -0.1084   0.00665   0.00209  -0.0689  0.8079  0.0028  -3.3699   0.0000   0.0000   0.0000  -0.3961
  -3.800  -0.0862   0.00623   0.00148  -0.0687  0.7971  0.0044  -3.1193   0.0000   0.0000   0.0000  -0.5591
  -3.600  -0.0640   0.00618   0.00140  -0.0687  0.7812  0.0054  -2.8917   0.0000   0.0000   0.0000  -0.8372
  -3.400  -0.0414   0.00610   0.00131  -0.0687  0.7728  0.0062  -2.6769   0.0000   0.0000   0.0000  -1.4314
  -3.200  -0.0190   0.00606   0.00123  -0.0687  0.7599  0.0065  -2.4824   0.0000   0.0000   0.0000  -3.4118
  -3.000   0.0035   0.00602   0.00112  -0.0686  0.7461  0.0063  -2.3057   0.0000   0.0000   0.0000  20.0930
  -2.800   0.0260   0.00597   0.00105  -0.0687  0.7345  0.0070  -2.1160   0.0000   0.0000   0.0000   2.9117
  -2.600   0.0482   0.00597   0.00099  -0.0686  0.7154  0.0077  -1.9346   0.0000   0.0000   0.0000   1.6843
  -2.400   0.0709   0.00592   0.00092  -0.0687  0.7068  0.0083  -1.7573   0.0000   0.0000   0.0000   1.2251
  -2.200   0.0934   0.00590   0.00087  -0.0687  0.6944  0.0089  -1.5854   0.0000   0.0000   0.0000   0.9899
  -2.000   0.1158   0.00590   0.00082  -0.0687  0.6782  0.0091  -1.4167   0.0000   0.0000   0.0000   0.8462
  -1.800   0.1384   0.00588   0.00077  -0.0687  0.6672  0.0092  -1.2515   0.0000   0.0000   0.0000   0.7487
  -1.600   0.1604   0.00574   0.00070  -0.0687  0.6479  0.0444  -1.1300   0.0000   0.0000   0.0000   0.6798
  -1.400   0.1829   0.00565   0.00065  -0.0687  0.6373  0.0647  -0.9841   0.0000   0.0000   0.0000   0.6268
  -1.200   0.2049   0.00551   0.00060  -0.0688  0.6210  0.1145  -0.8448   0.0000   0.0000   0.0000   0.5862
  -1.000   0.2276   0.00564   0.00057  -0.0688  0.6043  0.0869  -0.6928   0.0000   0.0000   0.0000   0.5523
  -0.800   0.2500   0.00552   0.00054  -0.0688  0.5948  0.1254  -0.5653   0.0000   0.0000   0.0000   0.5252
  -0.600   0.2721   0.00547   0.00052  -0.0689  0.5801  0.1566  -0.5180   0.0000   0.0000   0.0000   0.5026
  -0.400   0.2946   0.00540   0.00051  -0.0689  0.5677  0.1885  -0.5392   0.0000   0.0000   0.0000   0.4834
  -0.200   0.3170   0.00533   0.00050  -0.0690  0.5579  0.2227  -0.5615   0.0000   0.0000   0.0000   0.4668
   0.000   0.3389   0.00534   0.00051  -0.0690  0.5340  0.2584  -0.5835   0.0000   0.0000   0.0000   0.4526
   0.200   0.3612   0.00526   0.00052  -0.0691  0.5203  0.3076  -0.6058   0.0000   0.0000   0.0000   0.4401
   0.400   0.3829   0.00521   0.00054  -0.0691  0.4986  0.3672  -0.6280   0.0000   0.0000   0.0000   0.4291
   0.600   0.4053   0.00508   0.00056  -0.0692  0.4905  0.4312  -0.6507   0.0000   0.0000   0.0000   0.4193
   1.200   0.4718   0.00500   0.00065  -0.0694  0.4508  0.5543  -0.7349   0.0000   0.0000   0.0000   0.3950
   1.400   0.4936   0.00503   0.00070  -0.0694  0.4325  0.5960  -0.7633   0.0000   0.0000   0.0000   0.3884
   1.600   0.5151   0.00484   0.00077  -0.0694  0.4188  0.7096  -0.7918   0.0000   0.0000   0.0000   0.3823
   1.800   0.5358   0.00463   0.00084  -0.0691  0.4105  0.8264  -0.8230   0.0000   0.0000   0.0000   0.3764
   2.000   0.5560   0.00460   0.00091  -0.0686  0.3971  0.8873  -0.8544   0.0000   0.0000   0.0000   0.3708
   2.200   0.5756   0.00459   0.00097  -0.0679  0.3836  0.9281  -0.8856   0.0000   0.0000   0.0000   0.3652
   2.400   0.5941   0.00462   0.00102  -0.0670  0.3725  0.9639  -0.9163   0.0000   0.0000   0.0000   0.3598
   2.600   0.6197   0.00476   0.00107  -0.0678  0.3472  0.9901  -0.9528   0.0000   0.0000   0.0000   0.3563
   2.800   0.6453   0.00486   0.00112  -0.0686  0.3354  1.0000  -0.9967   0.0000   0.0000   0.0000   0.3531
   3.000   0.6670   0.00501   0.00118  -0.0686  0.3186  1.0000  -1.0406   0.0000   0.0000   0.0000   0.3494
   3.200   0.6893   0.00509   0.00123  -0.0686  0.3107  1.0000  -1.0857   0.0000   0.0000   0.0000   0.3460
   3.400   0.7112   0.00521   0.00130  -0.0686  0.3000  1.0000  -1.1308   0.0000   0.0000   0.0000   0.3427
   3.600   0.7329   0.00537   0.00138  -0.0686  0.2807  1.0000  -1.1759   0.0000   0.0000   0.0000   0.3396
   3.800   0.7549   0.00548   0.00145  -0.0686  0.2720  1.0000  -1.2255   0.0000   0.0000   0.0000   0.3367
   4.000   0.7765   0.00565   0.00154  -0.0685  0.2578  1.0000  -1.2785   0.0000   0.0000   0.0000   0.3340
   4.200   0.7964   0.00603   0.00175  -0.0683  0.2112  1.0000  -1.3296   0.0000   0.0000   0.0000   0.3313
   4.400   0.8102   0.00726   0.00229  -0.0673  0.0826  1.0000  -1.3761   0.0000   0.0000   0.0000   0.3284
   4.600   0.8284   0.00793   0.00268  -0.0667  0.0297  1.0000  -1.4381   0.0000   0.0000   0.0000   0.3258
   4.800   0.8487   0.00828   0.00292  -0.0665  0.0117  1.0000  -1.4925   0.0000   0.0000   0.0000   0.3234
   5.000   0.8704   0.00842   0.00304  -0.0665  0.0088  1.0000  -1.5720   0.0000   0.0000   0.0000   0.3212
   5.200   0.8914   0.00866   0.00324  -0.0663  0.0036  1.0000  -1.6527   0.0000   0.0000   0.0000   0.3190
   5.400   0.9130   0.00880   0.00336  -0.0663  0.0032  1.0000  -1.7565   0.0000   0.0000   0.0000   0.3170
   5.600   0.9346   0.00894   0.00349  -0.0663  0.0028  1.0000  -1.8622   0.0000   0.0000   0.0000   0.3151
   5.800   0.9560   0.00909   0.00362  -0.0662  0.0024  1.0000  -1.9662   0.0000   0.0000   0.0000   0.3132
   6.000   0.9774   0.00925   0.00376  -0.0662  0.0020  1.0000  -2.0690   0.0000   0.0000   0.0000   0.3114
   6.200   0.9988   0.00941   0.00390  -0.0661  0.0016  1.0000  -2.2001   0.0000   0.0000   0.0000   0.3097
   6.400   1.0201   0.00957   0.00405  -0.0660  0.0013  1.0000  -2.3953   0.0000   0.0000   0.0000   0.3080
   6.600   1.0412   0.00974   0.00421  -0.0659  0.0010  1.0000  -2.6137   0.0000   0.0000   0.0000   0.3064
   6.800   1.0624   0.00991   0.00441  -0.0659  0.0016  1.0000  -2.7557   0.0000   0.0000   0.0000   0.3048
   7.000   1.0834   0.01009   0.00458  -0.0658  0.0011  1.0000  -2.9863   0.0000   0.0000   0.0000   0.3033
   7.200   1.1044   0.01029   0.00479  -0.0656  0.0008  1.0000  -3.2991   0.0000   0.0000   0.0000   0.3018
   8.000   1.1859   0.01135   0.00603  -0.0646  0.0009  1.0000  -4.4625   0.0000   0.0000   0.0000   0.2958
   8.200   1.2058   0.01167   0.00639  -0.0643  0.0010  1.0000  -4.7545   0.0000   0.0000   0.0000   0.2943
   8.400   1.2255   0.01199   0.00674  -0.0639  0.0011  1.0000  -5.0568   0.0000   0.0000   0.0000   0.2929
   8.600   1.2452   0.01231   0.00709  -0.0636  0.0012  1.0000  -5.3675   0.0000   0.0000   0.0000   0.2915
   8.800   1.2645   0.01267   0.00748  -0.0632  0.0015  1.0000  -5.6797   0.0000   0.0000   0.0000   0.2902


