xflr5 v6.61

 Calculated polar for: SA7036

 1 1 Reynolds number fixed          Mach number fixed         

 xtrf =   1.000 (top)        1.000 (bottom)
 Mach =   0.000     Re =     2.500 e 6     Ncrit =   9.000

  alpha     CL        CD       CDp       Cm    Top Xtr Bot Xtr   Cpmin    Chinge    XCp    
 ------- -------- --------- --------- -------- ------- ------- -------- --------- ---------
  -9.000  -0.3862   0.09492   0.09382  -0.0219  1.0000  0.0028  -2.1846   0.0000   0.0000   0.0000   0.1869
  -8.800  -0.3838   0.09188   0.09079  -0.0233  1.0000  0.0028  -2.2283   0.0000   0.0000   0.0000   0.1832
  -8.600  -0.3813   0.08876   0.08768  -0.0248  1.0000  0.0028  -2.2753   0.0000   0.0000   0.0000   0.1790
  -8.400  -0.3792   0.08562   0.08455  -0.0263  1.0000  0.0028  -2.3260   0.0000   0.0000   0.0000   0.1748
  -8.200  -0.3778   0.08249   0.08143  -0.0278  1.0000  0.0028  -2.3805   0.0000   0.0000   0.0000   0.1706
  -8.000  -0.3768   0.07931   0.07827  -0.0295  1.0000  0.0028  -2.4394   0.0000   0.0000   0.0000   0.1662
  -7.800  -0.3699   0.07526   0.07423  -0.0335  0.9896  0.0028  -2.5114   0.0000   0.0000   0.0000   0.1538
  -7.600  -0.3574   0.07026   0.06921  -0.0404  0.9794  0.0028  -2.6031   0.0000   0.0000   0.0000   0.1314
  -7.400  -0.4063   0.04144   0.04006  -0.0682  0.9374  0.0032  -5.0801   0.0000   0.0000   0.0000   0.0763
  -7.200  -0.4061   0.03339   0.03173  -0.0712  0.9294  0.0035  -5.4993   0.0000   0.0000   0.0000   0.0687
  -7.000  -0.3921   0.03157   0.02978  -0.0718  0.9233  0.0037  -5.2659   0.0000   0.0000   0.0000   0.0610
  -6.800  -0.3761   0.03039   0.02849  -0.0722  0.9171  0.0039  -4.9697   0.0000   0.0000   0.0000   0.0524
  -6.600  -0.3586   0.02929   0.02732  -0.0726  0.9136  0.0041  -4.6629   0.0000   0.0000   0.0000   0.0419
  -6.400  -0.3404   0.02865   0.02661  -0.0729  0.9081  0.0044  -4.3199   0.0000   0.0000   0.0000   0.0303
  -6.200  -0.3216   0.02853   0.02642  -0.0730  0.9011  0.0048  -3.9257   0.0000   0.0000   0.0000   0.0175
  -6.000  -0.3041   0.02714   0.02491  -0.0731  0.8934  0.0054  -3.7010   0.0000   0.0000   0.0000   0.0039
  -5.800  -0.2852   0.02570   0.02337  -0.0733  0.8892  0.0063  -3.4933   0.0000   0.0000   0.0000  -0.0127
  -5.600  -0.2639   0.02522   0.02285  -0.0732  0.8842  0.0078  -3.2297   0.0000   0.0000   0.0000  -0.0331
  -5.400  -0.2384   0.02708   0.02481  -0.0727  0.8786  0.0089  -2.7992   0.0000   0.0000   0.0000  -0.0608
  -5.200  -0.2199   0.02521   0.02276  -0.0726  0.8702  0.0090  -2.7122   0.0000   0.0000   0.0000  -0.0864
  -5.000  -0.2012   0.02290   0.02025  -0.0726  0.8650  0.0091  -2.6634   0.0000   0.0000   0.0000  -0.1173
  -4.800  -0.1827   0.02038   0.01749  -0.0725  0.8580  0.0091  -2.6366   0.0000   0.0000   0.0000  -0.1537
  -4.600  -0.1640   0.01780   0.01463  -0.0722  0.8492  0.0090  -2.6247   0.0000   0.0000   0.0000  -0.1976
  -4.200  -0.1291   0.00732   0.00280  -0.0694  0.8354  0.0029  -3.6034   0.0000   0.0000   0.0000  -0.2963
  -4.000  -0.1075   0.00655   0.00175  -0.0690  0.8266  0.0038  -3.3630   0.0000   0.0000   0.0000  -0.4025
  -3.800  -0.0854   0.00645   0.00161  -0.0689  0.8139  0.0051  -3.1044   0.0000   0.0000   0.0000  -0.5694
  -3.600  -0.0628   0.00636   0.00153  -0.0689  0.8058  0.0060  -2.8696   0.0000   0.0000   0.0000  -0.8633
  -3.400  -0.0404   0.00629   0.00144  -0.0689  0.7940  0.0068  -2.6529   0.0000   0.0000   0.0000  -1.4777
  -3.200  -0.0182   0.00625   0.00134  -0.0688  0.7797  0.0071  -2.4633   0.0000   0.0000   0.0000  -3.5852
  -3.000   0.0045   0.00617   0.00121  -0.0689  0.7712  0.0070  -2.2906   0.0000   0.0000   0.0000  15.6553
  -2.800   0.0268   0.00614   0.00113  -0.0688  0.7574  0.0077  -2.1010   0.0000   0.0000   0.0000   2.8408
  -2.600   0.0492   0.00611   0.00106  -0.0688  0.7441  0.0082  -1.9159   0.0000   0.0000   0.0000   1.6592
  -2.400   0.0716   0.00608   0.00100  -0.0688  0.7303  0.0086  -1.7340   0.0000   0.0000   0.0000   1.2174
  -2.200   0.0939   0.00609   0.00095  -0.0688  0.7137  0.0089  -1.5546   0.0000   0.0000   0.0000   0.9872
  -2.000   0.1165   0.00605   0.00091  -0.0688  0.7053  0.0090  -1.3782   0.0000   0.0000   0.0000   0.8438
  -1.800   0.1388   0.00606   0.00087  -0.0688  0.6901  0.0091  -1.2116   0.0000   0.0000   0.0000   0.7479
  -1.600   0.1613   0.00606   0.00082  -0.0688  0.6756  0.0092  -1.0548   0.0000   0.0000   0.0000   0.6783
  -1.400   0.1832   0.00570   0.00068  -0.0688  0.6623  0.0833  -0.9837   0.0000   0.0000   0.0000   0.6265
  -1.200   0.2048   0.00543   0.00062  -0.0689  0.6433  0.1742  -0.8464   0.0000   0.0000   0.0000   0.5868
  -1.000   0.2279   0.00564   0.00059  -0.0688  0.6328  0.1186  -0.6915   0.0000   0.0000   0.0000   0.5522
  -0.800   0.2498   0.00557   0.00057  -0.0688  0.6143  0.1559  -0.5652   0.0000   0.0000   0.0000   0.5254
  -0.600   0.2723   0.00548   0.00055  -0.0689  0.6030  0.1906  -0.5181   0.0000   0.0000   0.0000   0.5027
  -0.200   0.3167   0.00534   0.00053  -0.0690  0.5765  0.2745  -0.5612   0.0000   0.0000   0.0000   0.4671
   0.000   0.3390   0.00522   0.00053  -0.0691  0.5652  0.3262  -0.5835   0.0000   0.0000   0.0000   0.4528
   0.200   0.3608   0.00513   0.00055  -0.0692  0.5472  0.3929  -0.6055   0.0000   0.0000   0.0000   0.4404
   0.400   0.3827   0.00507   0.00057  -0.0692  0.5277  0.4513  -0.6278   0.0000   0.0000   0.0000   0.4294
   0.600   0.4046   0.00501   0.00060  -0.0692  0.5126  0.5066  -0.6503   0.0000   0.0000   0.0000   0.4195
   0.800   0.4267   0.00500   0.00063  -0.0692  0.4948  0.5464  -0.6773   0.0000   0.0000   0.0000   0.4105
   1.000   0.4490   0.00492   0.00066  -0.0693  0.4879  0.5951  -0.7058   0.0000   0.0000   0.0000   0.4024
   1.200   0.4708   0.00490   0.00070  -0.0693  0.4730  0.6457  -0.7342   0.0000   0.0000   0.0000   0.3951
   1.400   0.4924   0.00483   0.00076  -0.0692  0.4555  0.7143  -0.7625   0.0000   0.0000   0.0000   0.3884
   1.600   0.5128   0.00465   0.00084  -0.0688  0.4434  0.8279  -0.7902   0.0000   0.0000   0.0000   0.3819
   1.800   0.5311   0.00458   0.00092  -0.0679  0.4264  0.9097  -0.8192   0.0000   0.0000   0.0000   0.3754
   2.000   0.5499   0.00456   0.00096  -0.0670  0.4170  0.9470  -0.8496   0.0000   0.0000   0.0000   0.3692
   2.200   0.5716   0.00460   0.00100  -0.0668  0.4066  0.9772  -0.8826   0.0000   0.0000   0.0000   0.3641
   2.400   0.6008   0.00473   0.00103  -0.0684  0.3863  0.9986  -0.9218   0.0000   0.0000   0.0000   0.3610
   2.600   0.6233   0.00482   0.00108  -0.0685  0.3736  1.0000  -0.9559   0.0000   0.0000   0.0000   0.3568
   2.800   0.6446   0.00501   0.00116  -0.0684  0.3486  1.0000  -0.9959   0.0000   0.0000   0.0000   0.3529
   3.000   0.6668   0.00509   0.00121  -0.0684  0.3412  1.0000  -1.0405   0.0000   0.0000   0.0000   0.3492
   3.200   0.6885   0.00524   0.00128  -0.0684  0.3272  1.0000  -1.0848   0.0000   0.0000   0.0000   0.3458
   3.400   0.7105   0.00536   0.00134  -0.0684  0.3131  1.0000  -1.1299   0.0000   0.0000   0.0000   0.3425
   3.600   0.7325   0.00546   0.00141  -0.0684  0.3041  1.0000  -1.1756   0.0000   0.0000   0.0000   0.3395
   3.800   0.7538   0.00566   0.00150  -0.0683  0.2835  1.0000  -1.2240   0.0000   0.0000   0.0000   0.3365
   4.000   0.7759   0.00575   0.00157  -0.0683  0.2751  1.0000  -1.2779   0.0000   0.0000   0.0000   0.3338
   4.200   0.7967   0.00601   0.00174  -0.0682  0.2469  1.0000  -1.3303   0.0000   0.0000   0.0000   0.3311
   4.400   0.8106   0.00721   0.00223  -0.0672  0.1167  1.0000  -1.3775   0.0000   0.0000   0.0000   0.3283
   4.600   0.8293   0.00778   0.00254  -0.0668  0.0682  1.0000  -1.4363   0.0000   0.0000   0.0000   0.3257
   4.800   0.8480   0.00836   0.00288  -0.0663  0.0277  1.0000  -1.5015   0.0000   0.0000   0.0000   0.3233
   5.000   0.8683   0.00869   0.00313  -0.0661  0.0128  1.0000  -1.5711   0.0000   0.0000   0.0000   0.3210
   5.200   0.8897   0.00886   0.00327  -0.0660  0.0090  1.0000  -1.6656   0.0000   0.0000   0.0000   0.3188
   5.400   0.9106   0.00911   0.00348  -0.0659  0.0038  1.0000  -1.7452   0.0000   0.0000   0.0000   0.3168
   5.600   0.9320   0.00927   0.00362  -0.0658  0.0033  1.0000  -1.8499   0.0000   0.0000   0.0000   0.3148
   5.800   0.9535   0.00942   0.00375  -0.0658  0.0030  1.0000  -1.9588   0.0000   0.0000   0.0000   0.3130
   6.000   0.9748   0.00958   0.00390  -0.0657  0.0026  1.0000  -2.0657   0.0000   0.0000   0.0000   0.3112
   6.200   0.9961   0.00974   0.00404  -0.0656  0.0021  1.0000  -2.1939   0.0000   0.0000   0.0000   0.3094
   6.400   1.0173   0.00991   0.00420  -0.0656  0.0016  1.0000  -2.3873   0.0000   0.0000   0.0000   0.3078
   6.600   1.0384   0.01009   0.00436  -0.0655  0.0013  1.0000  -2.5980   0.0000   0.0000   0.0000   0.3061
   6.800   1.0594   0.01026   0.00458  -0.0654  0.0021  1.0000  -2.7464   0.0000   0.0000   0.0000   0.3045
   7.000   1.0804   0.01045   0.00476  -0.0653  0.0016  1.0000  -2.9641   0.0000   0.0000   0.0000   0.3030
   7.200   1.1012   0.01066   0.00497  -0.0651  0.0010  1.0000  -3.2703   0.0000   0.0000   0.0000   0.3015
   7.400   1.1220   0.01087   0.00521  -0.0649  0.0009  1.0000  -3.5799   0.0000   0.0000   0.0000   0.3000
   7.600   1.1425   0.01112   0.00549  -0.0647  0.0009  1.0000  -3.8711   0.0000   0.0000   0.0000   0.2985
   7.800   1.1627   0.01139   0.00581  -0.0644  0.0009  1.0000  -4.1579   0.0000   0.0000   0.0000   0.2970
   8.000   1.1827   0.01170   0.00617  -0.0641  0.0009  1.0000  -4.4439   0.0000   0.0000   0.0000   0.2955
   8.200   1.2024   0.01203   0.00656  -0.0638  0.0010  1.0000  -4.7334   0.0000   0.0000   0.0000   0.2941
   8.400   1.2218   0.01238   0.00695  -0.0634  0.0011  1.0000  -5.0297   0.0000   0.0000   0.0000   0.2926
   8.600   1.2412   0.01274   0.00734  -0.0630  0.0012  1.0000  -5.3335   0.0000   0.0000   0.0000   0.2912
   8.800   1.2603   0.01311   0.00775  -0.0626  0.0013  1.0000  -5.6427   0.0000   0.0000   0.0000   0.2898
   9.000   1.2788   0.01354   0.00826  -0.0620  0.0016  1.0000  -5.9525   0.0000   0.0000   0.0000   0.2884
  11.200   1.3866   0.02582   0.02186  -0.0427  0.0022  1.0000  -8.1049   0.0000   0.0000   0.0000   0.2675
  11.400   1.3930   0.02656   0.02266  -0.0409  0.0020  1.0000  -8.3996   0.0000   0.0000   0.0000   0.2657
  11.600   1.3984   0.02739   0.02354  -0.0391  0.0019  1.0000  -8.6889   0.0000   0.0000   0.0000   0.2640
  11.800   1.4033   0.02833   0.02452  -0.0375  0.0017  1.0000  -8.9750   0.0000   0.0000   0.0000   0.2624
  12.000   1.4070   0.02937   0.02562  -0.0358  0.0016  1.0000  -9.2489   0.0000   0.0000   0.0000   0.2609
  12.200   1.4097   0.03058   0.02688  -0.0343  0.0015  1.0000  -9.5053   0.0000   0.0000   0.0000   0.2594
  12.400   1.4097   0.03213   0.02851  -0.0328  0.0014  1.0000  -9.7138   0.0000   0.0000   0.0000   0.2580
  12.600   1.4035   0.03435   0.03083  -0.0310  0.0012  1.0000  -9.8163   0.0000   0.0000   0.0000   0.2565
  12.800   1.3881   0.03770   0.03435  -0.0293  0.0011  1.0000  -9.7591   0.0000   0.0000   0.0000   0.2551
  13.000   1.3634   0.04249   0.03936  -0.0281  0.0010  1.0000  -9.5405   0.0000   0.0000   0.0000   0.2543
  13.200   1.3336   0.04836   0.04548  -0.0279  0.0010  1.0000  -9.2298   0.0000   0.0000   0.0000   0.2542
  13.400   1.3066   0.05427   0.05159  -0.0288  0.0009  1.0000  -8.9733   0.0000   0.0000   0.0000   0.2550
  13.600   1.2813   0.06066   0.05818  -0.0308  0.0009  1.0000  -8.7291   0.0000   0.0000   0.0000   0.2566
  13.800   1.2610   0.06678   0.06445  -0.0334  0.0009  1.0000  -8.5663   0.0000   0.0000   0.0000   0.2587
  14.000   1.2442   0.07273   0.07052  -0.0363  0.0009  1.0000  -8.4552   0.0000   0.0000   0.0000   0.2610
  14.200   1.2299   0.07856   0.07646  -0.0395  0.0009  1.0000  -8.3784   0.0000   0.0000   0.0000   0.2636
  14.400   1.2177   0.08428   0.08228  -0.0428  0.0009  1.0000  -8.3277   0.0000   0.0000   0.0000   0.2662
  14.600   1.2070   0.08969   0.08778  -0.0459  0.0009  1.0000  -8.3013   0.0000   0.0000   0.0000   0.2688
  14.800   1.1976   0.09510   0.09326  -0.0491  0.0009  1.0000  -8.2898   0.0000   0.0000   0.0000   0.2714
  15.000   1.1897   0.10052   0.09874  -0.0523  0.0009  1.0000  -8.2977   0.0000   0.0000   0.0000   0.2741


