xflr5 v6.61

 Calculated polar for: SA7036

 1 1 Reynolds number fixed          Mach number fixed         

 xtrf =   1.000 (top)        1.000 (bottom)
 Mach =   0.000     Re =     2.000 e 6     Ncrit =   9.000

  alpha     CL        CD       CDp       Cm    Top Xtr Bot Xtr   Cpmin    Chinge    XCp    
 ------- -------- --------- --------- -------- ------- ------- -------- --------- ---------
  -8.800  -0.4176   0.08463   0.08346  -0.0269  1.0000  0.0036  -3.1864   0.0000   0.0000   0.0000   0.1794
  -8.600  -0.4151   0.08199   0.08082  -0.0284  1.0000  0.0037  -3.1504   0.0000   0.0000   0.0000   0.1756
  -8.400  -0.4129   0.07928   0.07813  -0.0300  1.0000  0.0038  -3.1215   0.0000   0.0000   0.0000   0.1716
  -8.200  -0.4110   0.07669   0.07556  -0.0315  1.0000  0.0039  -3.0852   0.0000   0.0000   0.0000   0.1678
  -8.000  -0.4108   0.07413   0.07301  -0.0328  1.0000  0.0040  -3.0638   0.0000   0.0000   0.0000   0.1647
  -7.800  -0.3978   0.07107   0.06995  -0.0376  0.9902  0.0042  -2.9281   0.0000   0.0000   0.0000   0.1502
  -7.600  -0.3819   0.06630   0.06517  -0.0462  0.9810  0.0044  -2.9106   0.0000   0.0000   0.0000   0.1239
  -7.400  -0.3695   0.06096   0.05978  -0.0549  0.9682  0.0046  -2.9587   0.0000   0.0000   0.0000   0.0963
  -7.200  -0.3630   0.05589   0.05464  -0.0608  0.9552  0.0047  -3.0416   0.0000   0.0000   0.0000   0.0777
  -7.000  -0.3557   0.05110   0.04977  -0.0650  0.9455  0.0049  -3.1069   0.0000   0.0000   0.0000   0.0622
  -6.800  -0.3468   0.04673   0.04529  -0.0680  0.9371  0.0052  -3.1442   0.0000   0.0000   0.0000   0.0489
  -6.600  -0.3355   0.04264   0.04109  -0.0704  0.9307  0.0056  -3.1557   0.0000   0.0000   0.0000   0.0352
  -6.400  -0.3231   0.03898   0.03728  -0.0718  0.9233  0.0062  -3.1487   0.0000   0.0000   0.0000   0.0227
  -6.200  -0.3081   0.03597   0.03412  -0.0725  0.9163  0.0072  -3.1063   0.0000   0.0000   0.0000   0.0095
  -6.000  -0.2827   0.03703   0.03523  -0.0716  0.9119  0.0087  -2.7558   0.0000   0.0000   0.0000  -0.0087
  -5.800  -0.2655   0.03474   0.03282  -0.0720  0.9049  0.0090  -2.6867   0.0000   0.0000   0.0000  -0.0268
  -5.600  -0.2502   0.03170   0.02958  -0.0724  0.8974  0.0090  -2.6871   0.0000   0.0000   0.0000  -0.0453
  -5.400  -0.2339   0.02869   0.02637  -0.0728  0.8919  0.0091  -2.6873   0.0000   0.0000   0.0000  -0.0672
  -5.200  -0.2169   0.02576   0.02322  -0.0730  0.8868  0.0091  -2.6843   0.0000   0.0000   0.0000  -0.0930
  -5.000  -0.1996   0.02288   0.02010  -0.0730  0.8802  0.0091  -2.6829   0.0000   0.0000   0.0000  -0.1224
  -4.800  -0.1819   0.02014   0.01707  -0.0728  0.8724  0.0090  -2.6788   0.0000   0.0000   0.0000  -0.1571
  -4.600  -0.1720   0.00821   0.00364  -0.0700  0.8662  0.0033  -4.1338   0.0000   0.0000   0.0000  -0.1650
  -4.400  -0.1500   0.00770   0.00304  -0.0698  0.8602  0.0032  -3.8885   0.0000   0.0000   0.0000  -0.2239
  -4.200  -0.1282   0.00718   0.00236  -0.0695  0.8522  0.0035  -3.6413   0.0000   0.0000   0.0000  -0.3017
  -4.000  -0.1063   0.00686   0.00192  -0.0693  0.8430  0.0048  -3.3348   0.0000   0.0000   0.0000  -0.4126
  -3.800  -0.0837   0.00675   0.00184  -0.0693  0.8368  0.0059  -3.0639   0.0000   0.0000   0.0000  -0.5905
  -3.600  -0.0613   0.00667   0.00176  -0.0693  0.8281  0.0067  -2.8211   0.0000   0.0000   0.0000  -0.8972
  -3.400  -0.0392   0.00663   0.00167  -0.0692  0.8159  0.0074  -2.5970   0.0000   0.0000   0.0000  -1.5382
  -3.200  -0.0167   0.00650   0.00146  -0.0692  0.8069  0.0071  -2.4565   0.0000   0.0000   0.0000  -3.9438
  -3.000   0.0057   0.00644   0.00137  -0.0692  0.7957  0.0077  -2.2537   0.0000   0.0000   0.0000  12.4648
  -2.800   0.0278   0.00642   0.00129  -0.0691  0.7813  0.0082  -2.0561   0.0000   0.0000   0.0000   2.7586
  -2.600   0.0504   0.00637   0.00124  -0.0691  0.7733  0.0086  -1.8570   0.0000   0.0000   0.0000   1.6320
  -2.400   0.0727   0.00635   0.00120  -0.0691  0.7595  0.0088  -1.6628   0.0000   0.0000   0.0000   1.2076
  -2.200   0.0949   0.00635   0.00116  -0.0691  0.7448  0.0090  -1.4776   0.0000   0.0000   0.0000   0.9824
  -2.000   0.1173   0.00632   0.00111  -0.0691  0.7322  0.0091  -1.3049   0.0000   0.0000   0.0000   0.8419
  -1.800   0.1395   0.00631   0.00104  -0.0690  0.7164  0.0093  -1.1558   0.0000   0.0000   0.0000   0.7469
  -1.600   0.1617   0.00590   0.00078  -0.0689  0.7068  0.0759  -1.1271   0.0000   0.0000   0.0000   0.6779
  -1.400   0.1835   0.00570   0.00072  -0.0690  0.6913  0.1337  -0.9844   0.0000   0.0000   0.0000   0.6268
  -1.200   0.2048   0.00530   0.00067  -0.0691  0.6762  0.2574  -0.8477   0.0000   0.0000   0.0000   0.5877
  -1.000   0.2282   0.00566   0.00063  -0.0690  0.6634  0.1585  -0.6899   0.0000   0.0000   0.0000   0.5523
  -0.800   0.2500   0.00560   0.00061  -0.0689  0.6436  0.2005  -0.5640   0.0000   0.0000   0.0000   0.5256
  -0.600   0.2723   0.00547   0.00059  -0.0690  0.6330  0.2458  -0.5182   0.0000   0.0000   0.0000   0.5030
  -0.400   0.2943   0.00541   0.00058  -0.0690  0.6175  0.2901  -0.5389   0.0000   0.0000   0.0000   0.4839
  -0.200   0.3163   0.00525   0.00058  -0.0691  0.6042  0.3598  -0.5609   0.0000   0.0000   0.0000   0.4676
   0.000   0.3384   0.00509   0.00058  -0.0692  0.5942  0.4298  -0.5831   0.0000   0.0000   0.0000   0.4534
   0.200   0.3602   0.00503   0.00060  -0.0692  0.5774  0.4898  -0.6051   0.0000   0.0000   0.0000   0.4408
   0.400   0.3822   0.00494   0.00062  -0.0692  0.5625  0.5460  -0.6276   0.0000   0.0000   0.0000   0.4296
   0.600   0.4038   0.00494   0.00066  -0.0691  0.5405  0.5959  -0.6498   0.0000   0.0000   0.0000   0.4196
   0.800   0.4256   0.00485   0.00070  -0.0691  0.5265  0.6591  -0.6766   0.0000   0.0000   0.0000   0.4106
   1.000   0.4472   0.00477   0.00074  -0.0690  0.5138  0.7213  -0.7046   0.0000   0.0000   0.0000   0.4024
   1.200   0.4682   0.00472   0.00080  -0.0688  0.4960  0.7877  -0.7323   0.0000   0.0000   0.0000   0.3948
   1.400   0.4884   0.00459   0.00086  -0.0682  0.4874  0.8637  -0.7598   0.0000   0.0000   0.0000   0.3875
   1.600   0.5050   0.00454   0.00093  -0.0668  0.4716  0.9361  -0.7848   0.0000   0.0000   0.0000   0.3800
   1.800   0.5252   0.00458   0.00097  -0.0662  0.4549  0.9712  -0.8146   0.0000   0.0000   0.0000   0.3736
   2.000   0.5539   0.00464   0.00099  -0.0677  0.4425  0.9924  -0.8529   0.0000   0.0000   0.0000   0.3696
   2.200   0.5789   0.00478   0.00103  -0.0684  0.4237  1.0000  -0.8885   0.0000   0.0000   0.0000   0.3653
   2.400   0.6011   0.00485   0.00107  -0.0684  0.4150  1.0000  -0.9220   0.0000   0.0000   0.0000   0.3608
   2.600   0.6228   0.00498   0.00113  -0.0683  0.4004  1.0000  -0.9554   0.0000   0.0000   0.0000   0.3566
   2.800   0.6445   0.00513   0.00119  -0.0683  0.3807  1.0000  -0.9958   0.0000   0.0000   0.0000   0.3527
   3.000   0.6659   0.00529   0.00126  -0.0682  0.3623  1.0000  -1.0395   0.0000   0.0000   0.0000   0.3490
   3.200   0.6878   0.00541   0.00133  -0.0682  0.3472  1.0000  -1.0840   0.0000   0.0000   0.0000   0.3455
   3.400   0.7098   0.00551   0.00139  -0.0682  0.3379  1.0000  -1.1292   0.0000   0.0000   0.0000   0.3423
   3.600   0.7313   0.00568   0.00147  -0.0681  0.3218  1.0000  -1.1741   0.0000   0.0000   0.0000   0.3392
   3.800   0.7533   0.00579   0.00155  -0.0681  0.3100  1.0000  -1.2232   0.0000   0.0000   0.0000   0.3363
   4.000   0.7747   0.00597   0.00164  -0.0680  0.2941  1.0000  -1.2761   0.0000   0.0000   0.0000   0.3335
   4.200   0.7964   0.00612   0.00178  -0.0680  0.2792  1.0000  -1.3298   0.0000   0.0000   0.0000   0.3309
   4.400   0.8111   0.00716   0.00218  -0.0671  0.1601  1.0000  -1.3793   0.0000   0.0000   0.0000   0.3281
   4.600   0.8300   0.00768   0.00244  -0.0667  0.1148  1.0000  -1.4386   0.0000   0.0000   0.0000   0.3256
   4.800   0.8488   0.00822   0.00274  -0.0663  0.0721  1.0000  -1.5012   0.0000   0.0000   0.0000   0.3232
   5.000   0.8679   0.00872   0.00304  -0.0660  0.0396  1.0000  -1.5744   0.0000   0.0000   0.0000   0.3208
   5.200   0.8877   0.00912   0.00333  -0.0657  0.0198  1.0000  -1.6599   0.0000   0.0000   0.0000   0.3186
   5.400   0.9083   0.00939   0.00354  -0.0655  0.0114  1.0000  -1.7590   0.0000   0.0000   0.0000   0.3165
   5.600   0.9297   0.00956   0.00368  -0.0654  0.0089  1.0000  -1.8589   0.0000   0.0000   0.0000   0.3146
   5.800   0.9502   0.00984   0.00393  -0.0652  0.0037  1.0000  -1.9400   0.0000   0.0000   0.0000   0.3126
   6.000   0.9714   0.01001   0.00408  -0.0651  0.0032  1.0000  -2.0504   0.0000   0.0000   0.0000   0.3108
   6.200   0.9926   0.01017   0.00422  -0.0651  0.0028  1.0000  -2.1860   0.0000   0.0000   0.0000   0.3091
   6.400   1.0137   0.01035   0.00439  -0.0650  0.0023  1.0000  -2.3778   0.0000   0.0000   0.0000   0.3074
   6.600   1.0347   0.01054   0.00456  -0.0648  0.0018  1.0000  -2.5828   0.0000   0.0000   0.0000   0.3058
   6.800   1.0557   0.01072   0.00480  -0.0647  0.0029  1.0000  -2.7350   0.0000   0.0000   0.0000   0.3042
   7.000   1.0765   0.01092   0.00499  -0.0646  0.0023  1.0000  -2.9455   0.0000   0.0000   0.0000   0.3026
   7.200   1.0971   0.01113   0.00519  -0.0644  0.0015  1.0000  -3.1988   0.0000   0.0000   0.0000   0.3011
   7.400   1.1177   0.01136   0.00545  -0.0642  0.0011  1.0000  -3.5273   0.0000   0.0000   0.0000   0.2996
   7.600   1.1382   0.01160   0.00572  -0.0640  0.0010  1.0000  -3.8298   0.0000   0.0000   0.0000   0.2981
   7.800   1.1585   0.01186   0.00602  -0.0638  0.0010  1.0000  -4.1233   0.0000   0.0000   0.0000   0.2966
   8.000   1.1784   0.01216   0.00637  -0.0635  0.0010  1.0000  -4.4141   0.0000   0.0000   0.0000   0.2952
   8.200   1.1980   0.01250   0.00676  -0.0631  0.0011  1.0000  -4.7052   0.0000   0.0000   0.0000   0.2937
   8.400   1.2173   0.01286   0.00717  -0.0627  0.0011  1.0000  -4.9990   0.0000   0.0000   0.0000   0.2923
   8.600   1.2363   0.01324   0.00761  -0.0623  0.0012  1.0000  -5.2973   0.0000   0.0000   0.0000   0.2908
   8.800   1.2551   0.01365   0.00806  -0.0618  0.0013  1.0000  -5.6001   0.0000   0.0000   0.0000   0.2894
   9.000   1.2735   0.01408   0.00855  -0.0613  0.0014  1.0000  -5.9049   0.0000   0.0000   0.0000   0.2880
   9.200   1.2910   0.01462   0.00919  -0.0606  0.0017  1.0000  -6.2103   0.0000   0.0000   0.0000   0.2865
   9.400   1.3037   0.01580   0.01063  -0.0588  0.0026  1.0000  -6.2836   0.0000   0.0000   0.0000   0.2844
   9.600   1.2831   0.02382   0.01957  -0.0493  0.0134  1.0000  -5.1154   0.0000   0.0000   0.0000   0.2775
  11.600   1.3386   0.03451   0.03095  -0.0324  0.0035  1.0000  -7.4222   0.0000   0.0000   0.0000   0.2604
  11.800   1.3466   0.03499   0.03146  -0.0314  0.0032  1.0000  -7.7289   0.0000   0.0000   0.0000   0.2592
  12.000   1.3500   0.03611   0.03264  -0.0302  0.0029  1.0000  -7.9680   0.0000   0.0000   0.0000   0.2579
  12.200   1.3507   0.03754   0.03413  -0.0290  0.0027  1.0000  -8.1734   0.0000   0.0000   0.0000   0.2566
  12.400   1.3502   0.03920   0.03588  -0.0280  0.0025  1.0000  -8.3651   0.0000   0.0000   0.0000   0.2555
  12.600   1.3490   0.04110   0.03786  -0.0273  0.0024  1.0000  -8.5461   0.0000   0.0000   0.0000   0.2547
  12.800   1.3467   0.04323   0.04009  -0.0268  0.0023  1.0000  -8.7141   0.0000   0.0000   0.0000   0.2540
  13.000   1.3433   0.04563   0.04258  -0.0267  0.0022  1.0000  -8.8656   0.0000   0.0000   0.0000   0.2535
  13.200   1.3384   0.04832   0.04536  -0.0268  0.0021  1.0000  -8.9957   0.0000   0.0000   0.0000   0.2534
  13.400   1.3318   0.05133   0.04847  -0.0273  0.0020  1.0000  -9.0976   0.0000   0.0000   0.0000   0.2534
  13.600   1.3246   0.05471   0.05194  -0.0282  0.0019  1.0000  -9.1856   0.0000   0.0000   0.0000   0.2538
  13.800   1.3167   0.05845   0.05578  -0.0295  0.0019  1.0000  -9.2562   0.0000   0.0000   0.0000   0.2545
  14.000   1.3079   0.06256   0.06000  -0.0311  0.0019  1.0000  -9.3046   0.0000   0.0000   0.0000   0.2555
  14.200   1.2979   0.06707   0.06461  -0.0332  0.0018  1.0000  -9.3284   0.0000   0.0000   0.0000   0.2569
  14.400   1.2870   0.07199   0.06964  -0.0357  0.0018  1.0000  -9.3267   0.0000   0.0000   0.0000   0.2587


