xflr5 v6.61

 Calculated polar for: SA7036

 1 1 Reynolds number fixed          Mach number fixed         

 xtrf =   1.000 (top)        1.000 (bottom)
 Mach =   0.000     Re =     0.500 e 6     Ncrit =   9.000

  alpha     CL        CD       CDp       Cm    Top Xtr Bot Xtr   Cpmin    Chinge    XCp    
 ------- -------- --------- --------- -------- ------- ------- -------- --------- ---------
 -10.000  -0.4124   0.11073   0.10832  -0.0169  1.0000  0.0106  -1.9287   0.0000   0.0000   0.0000   0.2023
  -9.800  -0.4084   0.10796   0.10556  -0.0180  1.0000  0.0108  -1.9248   0.0000   0.0000   0.0000   0.1993
  -9.600  -0.4048   0.10507   0.10266  -0.0193  1.0000  0.0108  -1.9334   0.0000   0.0000   0.0000   0.1960
  -9.400  -0.4010   0.10228   0.09989  -0.0204  1.0000  0.0110  -1.9316   0.0000   0.0000   0.0000   0.1927
  -9.200  -0.3974   0.09948   0.09710  -0.0217  1.0000  0.0111  -1.9336   0.0000   0.0000   0.0000   0.1893
  -9.000  -0.3941   0.09668   0.09431  -0.0229  1.0000  0.0112  -1.9393   0.0000   0.0000   0.0000   0.1858
  -8.800  -0.3912   0.09387   0.09152  -0.0242  1.0000  0.0114  -1.9488   0.0000   0.0000   0.0000   0.1822
  -8.600  -0.3885   0.09102   0.08869  -0.0256  1.0000  0.0115  -1.9617   0.0000   0.0000   0.0000   0.1784
  -8.400  -0.3860   0.08814   0.08584  -0.0270  1.0000  0.0116  -1.9784   0.0000   0.0000   0.0000   0.1744
  -8.200  -0.3841   0.08526   0.08298  -0.0284  1.0000  0.0117  -1.9994   0.0000   0.0000   0.0000   0.1705
  -8.000  -0.3828   0.08237   0.08012  -0.0299  1.0000  0.0119  -2.0248   0.0000   0.0000   0.0000   0.1666
  -7.800  -0.3827   0.07952   0.07729  -0.0313  1.0000  0.0120  -2.0555   0.0000   0.0000   0.0000   0.1631
  -7.600  -0.3854   0.07686   0.07467  -0.0322  1.0000  0.0120  -2.0928   0.0000   0.0000   0.0000   0.1615
  -7.400  -0.3958   0.07496   0.07282  -0.0313  1.0000  0.0120  -2.1382   0.0000   0.0000   0.0000   0.1663
  -7.200  -0.4119   0.07356   0.07148  -0.0292  1.0000  0.0120  -2.1897   0.0000   0.0000   0.0000   0.1748
  -7.000  -0.4175   0.07078   0.06872  -0.0309  0.9991  0.0120  -2.2442   0.0000   0.0000   0.0000   0.1721
  -6.800  -0.3958   0.06440   0.06231  -0.0417  0.9952  0.0122  -2.3143   0.0000   0.0000   0.0000   0.1406
  -6.600  -0.3725   0.05769   0.05551  -0.0520  0.9916  0.0124  -2.4004   0.0000   0.0000   0.0000   0.1062
  -6.400  -0.3500   0.05132   0.04900  -0.0603  0.9874  0.0126  -2.4901   0.0000   0.0000   0.0000   0.0735
  -6.200  -0.3251   0.04513   0.04261  -0.0673  0.9846  0.0128  -2.5775   0.0000   0.0000   0.0000   0.0383
  -6.000  -0.3029   0.03980   0.03705  -0.0719  0.9807  0.0130  -2.6534   0.0000   0.0000   0.0000   0.0076
  -5.800  -0.2791   0.03489   0.03185  -0.0755  0.9770  0.0131  -2.7195   0.0000   0.0000   0.0000  -0.0261
  -5.600  -0.2534   0.03023   0.02683  -0.0786  0.9742  0.0131  -2.7911   0.0000   0.0000   0.0000  -0.0659
  -5.200  -0.2075   0.02108   0.01665  -0.0796  0.9654  0.0083  -3.2959   0.0000   0.0000   0.0000  -0.1408
  -5.000  -0.1855   0.01805   0.01317  -0.0798  0.9610  0.0080  -3.3391   0.0000   0.0000   0.0000  -0.1883
  -4.800  -0.1615   0.01594   0.01073  -0.0801  0.9578  0.0079  -3.2873   0.0000   0.0000   0.0000  -0.2545
  -4.600  -0.1408   0.01453   0.00909  -0.0796  0.9533  0.0080  -3.1809   0.0000   0.0000   0.0000  -0.3249
  -4.400  -0.1209   0.01352   0.00794  -0.0789  0.9475  0.0083  -3.0247   0.0000   0.0000   0.0000  -0.4130
  -4.200  -0.0990   0.01297   0.00730  -0.0785  0.9425  0.0088  -2.7925   0.0000   0.0000   0.0000  -0.5559
  -4.000  -0.0777   0.01228   0.00651  -0.0781  0.9379  0.0097  -2.5720   0.0000   0.0000   0.0000  -0.7695
  -3.800  -0.0604   0.01115   0.00527  -0.0770  0.9304  0.0120  -2.4531   0.0000   0.0000   0.0000  -1.0427
  -3.600  -0.0400   0.01082   0.00493  -0.0765  0.9242  0.0136  -2.2603   0.0000   0.0000   0.0000  -1.6875
  -3.400  -0.0192   0.01047   0.00453  -0.0760  0.9191  0.0147  -2.1093   0.0000   0.0000   0.0000  -3.7622
  -3.200   0.0015   0.01005   0.00399  -0.0755  0.9135  0.0147  -2.0176   0.0000   0.0000   0.0000  51.1836
  -3.000   0.0221   0.00975   0.00364  -0.0750  0.9065  0.0157  -1.8844   0.0000   0.0000   0.0000   3.6729
  -2.800   0.0430   0.00946   0.00328  -0.0745  0.8998  0.0167  -1.7613   0.0000   0.0000   0.0000   1.9985
  -2.600   0.0642   0.00930   0.00309  -0.0740  0.8937  0.0184  -1.6064   0.0000   0.0000   0.0000   1.4122
  -2.400   0.0854   0.00891   0.00266  -0.0736  0.8860  0.0254  -1.5318   0.0000   0.0000   0.0000   1.1190
  -2.200   0.1039   0.00763   0.00228  -0.0733  0.8779  0.2482  -1.5531   0.0000   0.0000   0.0000   0.9607
  -1.800   0.1444   0.00681   0.00209  -0.0727  0.8617  0.4543  -1.2659   0.0000   0.0000   0.0000   0.7558
  -1.600   0.1645   0.00646   0.00203  -0.0722  0.8521  0.5488  -1.1246   0.0000   0.0000   0.0000   0.6908
  -1.400   0.1847   0.00623   0.00196  -0.0716  0.8429  0.6219  -0.9852   0.0000   0.0000   0.0000   0.6388
  -1.200   0.2052   0.00605   0.00193  -0.0711  0.8333  0.6805  -0.8475   0.0000   0.0000   0.0000   0.5970
  -1.000   0.2253   0.00588   0.00188  -0.0704  0.8228  0.7362  -0.7053   0.0000   0.0000   0.0000   0.5626
  -0.800   0.2451   0.00577   0.00178  -0.0695  0.8121  0.7810  -0.5683   0.0000   0.0000   0.0000   0.5336
  -0.600   0.2620   0.00558   0.00180  -0.0679  0.8009  0.8588  -0.5122   0.0000   0.0000   0.0000   0.5089
  -0.400   0.2797   0.00550   0.00177  -0.0664  0.7883  0.9104  -0.5299   0.0000   0.0000   0.0000   0.4868
  -0.200   0.3033   0.00548   0.00171  -0.0662  0.7771  0.9528  -0.5528   0.0000   0.0000   0.0000   0.4676
   0.000   0.3352   0.00546   0.00163  -0.0682  0.7639  0.9807  -0.5809   0.0000   0.0000   0.0000   0.4524
   0.400   0.3892   0.00554   0.00152  -0.0701  0.7351  1.0000  -0.6315   0.0000   0.0000   0.0000   0.4289
   0.600   0.4097   0.00563   0.00149  -0.0697  0.7194  1.0000  -0.6536   0.0000   0.0000   0.0000   0.4187
   0.800   0.4307   0.00571   0.00149  -0.0694  0.7049  1.0000  -0.6798   0.0000   0.0000   0.0000   0.4095
   1.000   0.4516   0.00580   0.00149  -0.0691  0.6888  1.0000  -0.7073   0.0000   0.0000   0.0000   0.4012
   1.200   0.4726   0.00590   0.00151  -0.0688  0.6749  1.0000  -0.7350   0.0000   0.0000   0.0000   0.3937
   1.400   0.4939   0.00598   0.00153  -0.0686  0.6603  1.0000  -0.7631   0.0000   0.0000   0.0000   0.3868
   1.600   0.5146   0.00613   0.00158  -0.0683  0.6430  1.0000  -0.7910   0.0000   0.0000   0.0000   0.3804
   1.800   0.5360   0.00621   0.00161  -0.0681  0.6268  1.0000  -0.8216   0.0000   0.0000   0.0000   0.3746
   2.200   0.5781   0.00646   0.00169  -0.0676  0.5921  1.0000  -0.8860   0.0000   0.0000   0.0000   0.3642
   2.400   0.5989   0.00662   0.00174  -0.0673  0.5752  1.0000  -0.9183   0.0000   0.0000   0.0000   0.3595
   2.600   0.6204   0.00673   0.00181  -0.0672  0.5611  1.0000  -0.9514   0.0000   0.0000   0.0000   0.3552
   2.800   0.6414   0.00687   0.00187  -0.0670  0.5439  1.0000  -0.9902   0.0000   0.0000   0.0000   0.3511
   3.000   0.6624   0.00703   0.00196  -0.0667  0.5266  1.0000  -1.0332   0.0000   0.0000   0.0000   0.3473
   3.200   0.6836   0.00717   0.00203  -0.0665  0.5094  1.0000  -1.0768   0.0000   0.0000   0.0000   0.3438
   3.400   0.7043   0.00736   0.00213  -0.0663  0.4927  1.0000  -1.1204   0.0000   0.0000   0.0000   0.3404
   3.600   0.7258   0.00748   0.00223  -0.0662  0.4781  1.0000  -1.1652   0.0000   0.0000   0.0000   0.3373
   4.000   0.7674   0.00786   0.00245  -0.0657  0.4406  1.0000  -1.2634   0.0000   0.0000   0.0000   0.3314
   4.200   0.7876   0.00810   0.00258  -0.0655  0.4196  1.0000  -1.3152   0.0000   0.0000   0.0000   0.3287
   4.400   0.8090   0.00824   0.00280  -0.0653  0.4058  1.0000  -1.3740   0.0000   0.0000   0.0000   0.3261
   4.600   0.8294   0.00847   0.00295  -0.0651  0.3885  1.0000  -1.4361   0.0000   0.0000   0.0000   0.3237
   4.800   0.8506   0.00863   0.00309  -0.0650  0.3753  1.0000  -1.5008   0.0000   0.0000   0.0000   0.3214
   5.000   0.8709   0.00888   0.00324  -0.0647  0.3560  1.0000  -1.5771   0.0000   0.0000   0.0000   0.3191
   5.200   0.8903   0.00921   0.00341  -0.0644  0.3244  1.0000  -1.6689   0.0000   0.0000   0.0000   0.3169
   5.400   0.9086   0.00968   0.00363  -0.0639  0.2818  1.0000  -1.7597   0.0000   0.0000   0.0000   0.3147
   5.600   0.9271   0.01013   0.00385  -0.0635  0.2414  1.0000  -1.8525   0.0000   0.0000   0.0000   0.3127
   5.800   0.9458   0.01058   0.00410  -0.0632  0.2077  1.0000  -1.9466   0.0000   0.0000   0.0000   0.3107
   6.000   0.9651   0.01095   0.00435  -0.0629  0.1861  1.0000  -2.0432   0.0000   0.0000   0.0000   0.3089
   6.200   0.9843   0.01133   0.00461  -0.0626  0.1650  1.0000  -2.2082   0.0000   0.0000   0.0000   0.3071
   6.400   1.0038   0.01168   0.00486  -0.0623  0.1460  1.0000  -2.3905   0.0000   0.0000   0.0000   0.3053
   6.600   1.0230   0.01205   0.00515  -0.0620  0.1291  1.0000  -2.5788   0.0000   0.0000   0.0000   0.3036
   6.800   1.0444   0.01217   0.00546  -0.0618  0.1350  1.0000  -2.7379   0.0000   0.0000   0.0000   0.3020
   7.000   1.0636   0.01252   0.00576  -0.0615  0.1199  1.0000  -2.9286   0.0000   0.0000   0.0000   0.3004
   7.200   1.0820   0.01298   0.00610  -0.0611  0.1011  1.0000  -3.1286   0.0000   0.0000   0.0000   0.2988
   7.400   1.1002   0.01346   0.00647  -0.0607  0.0835  1.0000  -3.3384   0.0000   0.0000   0.0000   0.2972
   7.600   1.1181   0.01395   0.00686  -0.0602  0.0674  1.0000  -3.5690   0.0000   0.0000   0.0000   0.2957
   7.800   1.1352   0.01454   0.00732  -0.0596  0.0498  1.0000  -3.8339   0.0000   0.0000   0.0000   0.2941
   8.000   1.1498   0.01540   0.00797  -0.0588  0.0260  1.0000  -4.0762   0.0000   0.0000   0.0000   0.2925
   8.200   1.1632   0.01642   0.00883  -0.0577  0.0064  1.0000  -4.2990   0.0000   0.0000   0.0000   0.2907
   8.400   1.1807   0.01692   0.00938  -0.0571  0.0039  1.0000  -4.5597   0.0000   0.0000   0.0000   0.2892
   8.600   1.1984   0.01740   0.00993  -0.0564  0.0035  1.0000  -4.8464   0.0000   0.0000   0.0000   0.2876
   8.800   1.2156   0.01792   0.01055  -0.0557  0.0033  1.0000  -5.1240   0.0000   0.0000   0.0000   0.2861
   9.000   1.2321   0.01850   0.01124  -0.0549  0.0032  1.0000  -5.3925   0.0000   0.0000   0.0000   0.2846
   9.200   1.2478   0.01915   0.01201  -0.0540  0.0031  1.0000  -5.6498   0.0000   0.0000   0.0000   0.2830
   9.400   1.2618   0.01996   0.01302  -0.0529  0.0030  1.0000  -5.9108   0.0000   0.0000   0.0000   0.2813
   9.600   1.2745   0.02086   0.01405  -0.0516  0.0030  1.0000  -6.1380   0.0000   0.0000   0.0000   0.2796
   9.800   1.2854   0.02186   0.01520  -0.0500  0.0030  1.0000  -6.3439   0.0000   0.0000   0.0000   0.2778
  10.000   1.2943   0.02298   0.01647  -0.0483  0.0031  1.0000  -6.5283   0.0000   0.0000   0.0000   0.2759
  10.200   1.3005   0.02420   0.01783  -0.0462  0.0031  1.0000  -6.6887   0.0000   0.0000   0.0000   0.2738
  10.400   1.3033   0.02549   0.01927  -0.0436  0.0032  1.0000  -6.8201   0.0000   0.0000   0.0000   0.2715
  10.600   1.3043   0.02692   0.02084  -0.0410  0.0032  1.0000  -6.9334   0.0000   0.0000   0.0000   0.2691
  10.800   1.3039   0.02851   0.02258  -0.0385  0.0033  1.0000  -7.0312   0.0000   0.0000   0.0000   0.2669
  11.000   1.3025   0.03028   0.02450  -0.0361  0.0034  1.0000  -7.1146   0.0000   0.0000   0.0000   0.2648
  11.200   1.3000   0.03224   0.02662  -0.0339  0.0034  1.0000  -7.1824   0.0000   0.0000   0.0000   0.2628
  11.400   1.2966   0.03443   0.02898  -0.0319  0.0035  1.0000  -7.2351   0.0000   0.0000   0.0000   0.2610
  11.600   1.2920   0.03688   0.03160  -0.0301  0.0036  1.0000  -7.2693   0.0000   0.0000   0.0000   0.2594
  11.800   1.2858   0.03960   0.03451  -0.0285  0.0036  1.0000  -7.2813   0.0000   0.0000   0.0000   0.2580
  12.000   1.2778   0.04271   0.03781  -0.0272  0.0037  1.0000  -7.2665   0.0000   0.0000   0.0000   0.2568
  12.200   1.2673   0.04630   0.04160  -0.0263  0.0038  1.0000  -7.2147   0.0000   0.0000   0.0000   0.2559
  12.400   1.2519   0.05068   0.04622  -0.0258  0.0039  1.0000  -7.0907   0.0000   0.0000   0.0000   0.2554
  12.800   1.2452   0.05629   0.05206  -0.0259  0.0042  1.0000  -7.2210   0.0000   0.0000   0.0000   0.2549
  13.000   1.2474   0.05841   0.05425  -0.0264  0.0043  1.0000  -7.3842   0.0000   0.0000   0.0000   0.2549
  13.200   1.2484   0.06082   0.05674  -0.0271  0.0045  1.0000  -7.5247   0.0000   0.0000   0.0000   0.2551
  13.400   1.2467   0.06378   0.05982  -0.0281  0.0046  1.0000  -7.6174   0.0000   0.0000   0.0000   0.2555
  13.600   1.2406   0.06757   0.06377  -0.0294  0.0049  1.0000  -7.6337   0.0000   0.0000   0.0000   0.2563
  13.800   1.2280   0.07264   0.06906  -0.0313  0.0051  1.0000  -7.5279   0.0000   0.0000   0.0000   0.2578
  14.000   1.2099   0.07891   0.07556  -0.0340  0.0054  1.0000  -7.3305   0.0000   0.0000   0.0000   0.2600
  14.200   1.1925   0.08517   0.08201  -0.0371  0.0056  1.0000  -7.1677   0.0000   0.0000   0.0000   0.2627
  14.400   1.1768   0.09140   0.08839  -0.0405  0.0057  1.0000  -7.0416   0.0000   0.0000   0.0000   0.2657
  14.600   1.1625   0.09775   0.09487  -0.0443  0.0057  1.0000  -6.9350   0.0000   0.0000   0.0000   0.2690
  14.800   1.1494   0.10416   0.10141  -0.0482  0.0057  1.0000  -6.8413   0.0000   0.0000   0.0000   0.2726
  15.000   1.1372   0.11064   0.10799  -0.0522  0.0057  1.0000  -6.7555   0.0000   0.0000   0.0000   0.2763


