xflr5 v6.61

 Calculated polar for: NACA 2414

 1 1 Reynolds number fixed          Mach number fixed         

 xtrf =   1.000 (top)        1.000 (bottom)
 Mach =   0.000     Re =     1.500 e 6     Ncrit =   9.000

  alpha     CL        CD       CDp       Cm    Top Xtr Bot Xtr   Cpmin    Chinge    XCp    
 ------- -------- --------- --------- -------- ------- ------- -------- --------- ---------
 -10.000  -0.8577   0.01241   0.00723  -0.0571  0.9838  0.0268  -5.0918   0.0000   0.0000   0.0000   0.1707
  -9.800  -0.8320   0.01220   0.00702  -0.0579  0.9824  0.0271  -4.9048   0.0000   0.0000   0.0000   0.1678
  -9.600  -0.8082   0.01168   0.00645  -0.0585  0.9806  0.0299  -4.7551   0.0000   0.0000   0.0000   0.1652
  -9.400  -0.7871   0.01139   0.00618  -0.0583  0.9773  0.0317  -4.6158   0.0000   0.0000   0.0000   0.1636
  -9.200  -0.7663   0.01115   0.00595  -0.0581  0.9732  0.0330  -4.4761   0.0000   0.0000   0.0000   0.1621
  -9.000  -0.7446   0.01093   0.00571  -0.0579  0.9693  0.0342  -4.3344   0.0000   0.0000   0.0000   0.1602
  -8.800  -0.7220   0.01074   0.00551  -0.0580  0.9657  0.0351  -4.1914   0.0000   0.0000   0.0000   0.1579
  -8.600  -0.7007   0.01058   0.00533  -0.0578  0.9614  0.0358  -4.0536   0.0000   0.0000   0.0000   0.1559
  -8.400  -0.6804   0.01043   0.00517  -0.0573  0.9558  0.0362  -3.9203   0.0000   0.0000   0.0000   0.1543
  -8.200  -0.6596   0.01024   0.00495  -0.0569  0.9501  0.0372  -3.7895   0.0000   0.0000   0.0000   0.1523
  -8.000  -0.6391   0.00996   0.00465  -0.0566  0.9444  0.0405  -3.6646   0.0000   0.0000   0.0000   0.1503
  -7.800  -0.6184   0.00975   0.00446  -0.0562  0.9395  0.0429  -3.5365   0.0000   0.0000   0.0000   0.1480
  -7.600  -0.5972   0.00957   0.00429  -0.0560  0.9339  0.0448  -3.4080   0.0000   0.0000   0.0000   0.1453
  -7.400  -0.5757   0.00943   0.00413  -0.0558  0.9285  0.0462  -3.2800   0.0000   0.0000   0.0000   0.1422
  -7.200  -0.5538   0.00932   0.00398  -0.0556  0.9230  0.0470  -3.1533   0.0000   0.0000   0.0000   0.1388
  -7.000  -0.5323   0.00912   0.00378  -0.0554  0.9178  0.0504  -3.0310   0.0000   0.0000   0.0000   0.1352
  -6.800  -0.5110   0.00893   0.00361  -0.0552  0.9112  0.0543  -2.9095   0.0000   0.0000   0.0000   0.1313
  -6.600  -0.4895   0.00879   0.00346  -0.0549  0.9040  0.0574  -2.7883   0.0000   0.0000   0.0000   0.1271
  -6.400  -0.4674   0.00868   0.00334  -0.0548  0.8976  0.0590  -2.6669   0.0000   0.0000   0.0000   0.1221
  -6.200  -0.4456   0.00851   0.00317  -0.0547  0.8908  0.0641  -2.5499   0.0000   0.0000   0.0000   0.1167
  -6.000  -0.4239   0.00836   0.00303  -0.0545  0.8834  0.0686  -2.4341   0.0000   0.0000   0.0000   0.1108
  -5.800  -0.4019   0.00826   0.00291  -0.0544  0.8759  0.0717  -2.3300   0.0000   0.0000   0.0000   0.1041
  -5.600  -0.3796   0.00813   0.00278  -0.0543  0.8695  0.0764  -2.2320   0.0000   0.0000   0.0000   0.0963
  -5.400  -0.3578   0.00798   0.00264  -0.0542  0.8610  0.0826  -2.1368   0.0000   0.0000   0.0000   0.0879
  -5.200  -0.3359   0.00790   0.00253  -0.0540  0.8511  0.0865  -2.0417   0.0000   0.0000   0.0000   0.0785
  -5.000  -0.3136   0.00776   0.00242  -0.0539  0.8437  0.0939  -1.9475   0.0000   0.0000   0.0000   0.0671
  -4.800  -0.2916   0.00765   0.00231  -0.0538  0.8343  0.1009  -1.8549   0.0000   0.0000   0.0000   0.0543
  -4.600  -0.2697   0.00756   0.00221  -0.0537  0.8245  0.1093  -1.7642   0.0000   0.0000   0.0000   0.0397
  -4.400  -0.2473   0.00743   0.00212  -0.0537  0.8167  0.1174  -1.6736   0.0000   0.0000   0.0000   0.0215
  -4.200  -0.2252   0.00735   0.00202  -0.0535  0.8058  0.1257  -1.5851   0.0000   0.0000   0.0000   0.0003
  -4.000  -0.2032   0.00726   0.00194  -0.0534  0.7952  0.1348  -1.4981   0.0000   0.0000   0.0000  -0.0252
  -3.800  -0.1808   0.00716   0.00186  -0.0534  0.7857  0.1446  -1.4198   0.0000   0.0000   0.0000  -0.0583
  -3.600  -0.1588   0.00709   0.00177  -0.0532  0.7742  0.1550  -1.3474   0.0000   0.0000   0.0000  -0.0990
  -3.400  -0.1367   0.00698   0.00170  -0.0532  0.7645  0.1691  -1.2754   0.0000   0.0000   0.0000  -0.1541
  -3.200  -0.1143   0.00692   0.00163  -0.0531  0.7529  0.1804  -1.2042   0.0000   0.0000   0.0000  -0.2311
  -3.000  -0.0925   0.00686   0.00157  -0.0530  0.7402  0.1937  -1.1347   0.0000   0.0000   0.0000  -0.3415
  -2.800  -0.0699   0.00677   0.00152  -0.0530  0.7307  0.2067  -1.0653   0.0000   0.0000   0.0000  -0.5302
  -2.400  -0.0257   0.00664   0.00142  -0.0528  0.7070  0.2385  -0.9429   0.0000   0.0000   0.0000  -1.8554
  -2.200  -0.0035   0.00659   0.00138  -0.0527  0.6945  0.2541  -0.8855   0.0000   0.0000   0.0000  -15.2686
  -2.000   0.0187   0.00657   0.00135  -0.0526  0.6819  0.2676  -0.8289   0.0000   0.0000   0.0000   3.1167
  -1.800   0.0411   0.00648   0.00131  -0.0526  0.6717  0.2878  -0.7730   0.0000   0.0000   0.0000   1.5513
  -1.600   0.0629   0.00644   0.00128  -0.0525  0.6574  0.3078  -0.7249   0.0000   0.0000   0.0000   1.0959
  -1.400   0.0854   0.00639   0.00125  -0.0525  0.6470  0.3252  -0.6769   0.0000   0.0000   0.0000   0.8711
  -1.200   0.1076   0.00635   0.00123  -0.0524  0.6348  0.3456  -0.6300   0.0000   0.0000   0.0000   0.7412
  -0.800   0.1520   0.00625   0.00120  -0.0523  0.6117  0.3921  -0.5685   0.0000   0.0000   0.0000   0.5952
  -0.600   0.1736   0.00621   0.00119  -0.0522  0.5977  0.4218  -0.5860   0.0000   0.0000   0.0000   0.5505
  -0.400   0.1958   0.00610   0.00119  -0.0521  0.5889  0.4574  -0.6043   0.0000   0.0000   0.0000   0.5155
  -0.200   0.2176   0.00604   0.00119  -0.0520  0.5773  0.4913  -0.6225   0.0000   0.0000   0.0000   0.4877
   0.000   0.2393   0.00600   0.00120  -0.0519  0.5647  0.5265  -0.6412   0.0000   0.0000   0.0000   0.4649
   0.200   0.2617   0.00593   0.00121  -0.0518  0.5562  0.5571  -0.6611   0.0000   0.0000   0.0000   0.4459
   0.400   0.2835   0.00591   0.00123  -0.0517  0.5446  0.5876  -0.6809   0.0000   0.0000   0.0000   0.4298
   0.600   0.3055   0.00588   0.00125  -0.0516  0.5341  0.6170  -0.7015   0.0000   0.0000   0.0000   0.4160
   0.800   0.3278   0.00584   0.00127  -0.0515  0.5257  0.6448  -0.7233   0.0000   0.0000   0.0000   0.4040
   1.000   0.3495   0.00584   0.00130  -0.0513  0.5147  0.6734  -0.7447   0.0000   0.0000   0.0000   0.3935
   1.200   0.3715   0.00582   0.00134  -0.0512  0.5052  0.7001  -0.7679   0.0000   0.0000   0.0000   0.3842
   1.400   0.3936   0.00579   0.00137  -0.0511  0.4977  0.7279  -0.7915   0.0000   0.0000   0.0000   0.3759
   1.600   0.4153   0.00580   0.00141  -0.0509  0.4878  0.7545  -0.8160   0.0000   0.0000   0.0000   0.3684
   1.800   0.4369   0.00581   0.00146  -0.0507  0.4777  0.7809  -0.8414   0.0000   0.0000   0.0000   0.3617
   2.000   0.4589   0.00578   0.00151  -0.0505  0.4715  0.8073  -0.8682   0.0000   0.0000   0.0000   0.3555
   2.200   0.4804   0.00580   0.00156  -0.0502  0.4626  0.8321  -0.8959   0.0000   0.0000   0.0000   0.3498
   2.400   0.5015   0.00585   0.00163  -0.0499  0.4513  0.8562  -0.9251   0.0000   0.0000   0.0000   0.3445
   2.600   0.5232   0.00585   0.00168  -0.0496  0.4457  0.8785  -0.9559   0.0000   0.0000   0.0000   0.3397
   2.800   0.5444   0.00588   0.00175  -0.0492  0.4377  0.8995  -0.9891   0.0000   0.0000   0.0000   0.3351
   3.000   0.5649   0.00596   0.00182  -0.0487  0.4270  0.9182  -1.0235   0.0000   0.0000   0.0000   0.3307
   3.200   0.5860   0.00601   0.00189  -0.0483  0.4194  0.9341  -1.0604   0.0000   0.0000   0.0000   0.3267
   3.400   0.6075   0.00608   0.00195  -0.0480  0.4111  0.9475  -1.1016   0.0000   0.0000   0.0000   0.3231
   3.600   0.6287   0.00621   0.00203  -0.0476  0.3990  0.9598  -1.1448   0.0000   0.0000   0.0000   0.3197
   3.800   0.6522   0.00629   0.00210  -0.0478  0.3900  0.9682  -1.1934   0.0000   0.0000   0.0000   0.3170
   4.000   0.6758   0.00642   0.00220  -0.0480  0.3784  0.9763  -1.2466   0.0000   0.0000   0.0000   0.3146
   4.200   0.7004   0.00656   0.00228  -0.0485  0.3653  0.9819  -1.3032   0.0000   0.0000   0.0000   0.3127
   4.400   0.7277   0.00671   0.00237  -0.0496  0.3530  0.9858  -1.3681   0.0000   0.0000   0.0000   0.3114
   4.600   0.7547   0.00688   0.00248  -0.0507  0.3381  0.9896  -1.4366   0.0000   0.0000   0.0000   0.3102
   4.800   0.7817   0.00706   0.00259  -0.0517  0.3245  0.9929  -1.5060   0.0000   0.0000   0.0000   0.3090
   5.000   0.8123   0.00725   0.00271  -0.0536  0.3082  0.9943  -1.5892   0.0000   0.0000   0.0000   0.3087
   5.200   0.8418   0.00749   0.00284  -0.0553  0.2902  0.9962  -1.6742   0.0000   0.0000   0.0000   0.3082
   5.400   0.8702   0.00767   0.00296  -0.0567  0.2767  0.9978  -1.7587   0.0000   0.0000   0.0000   0.3075
   5.600   0.8969   0.00790   0.00312  -0.0578  0.2589  0.9991  -1.8415   0.0000   0.0000   0.0000   0.3066
   5.800   0.9209   0.00816   0.00327  -0.0584  0.2413  1.0000  -1.9302   0.0000   0.0000   0.0000   0.3053
   6.000   0.9377   0.00832   0.00339  -0.0573  0.2303  1.0000  -2.0079   0.0000   0.0000   0.0000   0.3027
   6.200   0.9539   0.00853   0.00353  -0.0561  0.2167  1.0000  -2.0853   0.0000   0.0000   0.0000   0.3002
   6.400   0.9697   0.00877   0.00369  -0.0549  0.2017  1.0000  -2.1628   0.0000   0.0000   0.0000   0.2978
   6.600   0.9862   0.00899   0.00385  -0.0537  0.1879  1.0000  -2.2426   0.0000   0.0000   0.0000   0.2955
   6.800   1.0024   0.00925   0.00402  -0.0526  0.1737  1.0000  -2.3225   0.0000   0.0000   0.0000   0.2932
   7.000   1.0188   0.00950   0.00420  -0.0515  0.1613  1.0000  -2.4040   0.0000   0.0000   0.0000   0.2910
   7.200   1.0360   0.00972   0.00437  -0.0505  0.1509  1.0000  -2.4903   0.0000   0.0000   0.0000   0.2890
   7.600   1.0705   0.01023   0.00477  -0.0486  0.1297  1.0000  -2.6856   0.0000   0.0000   0.0000   0.2852
   7.800   1.0876   0.01052   0.00500  -0.0477  0.1183  1.0000  -2.7854   0.0000   0.0000   0.0000   0.2835
   8.000   1.1051   0.01081   0.00522  -0.0469  0.1086  1.0000  -2.8875   0.0000   0.0000   0.0000   0.2818
   8.200   1.1230   0.01108   0.00545  -0.0462  0.0995  1.0000  -2.9918   0.0000   0.0000   0.0000   0.2802
   8.400   1.1405   0.01139   0.00569  -0.0454  0.0914  1.0000  -3.0965   0.0000   0.0000   0.0000   0.2786
   8.600   1.1588   0.01164   0.00592  -0.0447  0.0850  1.0000  -3.2044   0.0000   0.0000   0.0000   0.2771
   8.800   1.1768   0.01192   0.00616  -0.0440  0.0793  1.0000  -3.3129   0.0000   0.0000   0.0000   0.2757
   9.000   1.1942   0.01223   0.00642  -0.0432  0.0723  1.0000  -3.4208   0.0000   0.0000   0.0000   0.2742
   9.200   1.2127   0.01246   0.00665  -0.0426  0.0690  1.0000  -3.5334   0.0000   0.0000   0.0000   0.2729
   9.400   1.2299   0.01278   0.00694  -0.0418  0.0643  1.0000  -3.6442   0.0000   0.0000   0.0000   0.2715
   9.600   1.2471   0.01309   0.00723  -0.0411  0.0590  1.0000  -3.7549   0.0000   0.0000   0.0000   0.2701
   9.800   1.2652   0.01333   0.00747  -0.0404  0.0569  1.0000  -3.8703   0.0000   0.0000   0.0000   0.2688
  10.000   1.2822   0.01363   0.00775  -0.0396  0.0537  1.0000  -3.9950   0.0000   0.0000   0.0000   0.2675
  10.200   1.2981   0.01400   0.00808  -0.0386  0.0493  1.0000  -4.1218   0.0000   0.0000   0.0000   0.2661
  10.400   1.3149   0.01429   0.00837  -0.0378  0.0467  1.0000  -4.2537   0.0000   0.0000   0.0000   0.2648
  10.600   1.3317   0.01456   0.00865  -0.0370  0.0450  1.0000  -4.3878   0.0000   0.0000   0.0000   0.2635
  10.800   1.3468   0.01489   0.00896  -0.0358  0.0427  1.0000  -4.5173   0.0000   0.0000   0.0000   0.2620
  11.000   1.3600   0.01526   0.00931  -0.0344  0.0402  1.0000  -4.6410   0.0000   0.0000   0.0000   0.2604
  11.200   1.3725   0.01566   0.00972  -0.0328  0.0371  1.0000  -4.7619   0.0000   0.0000   0.0000   0.2587
  11.400   1.3870   0.01598   0.01007  -0.0317  0.0361  1.0000  -4.8940   0.0000   0.0000   0.0000   0.2573
  11.600   1.4018   0.01629   0.01040  -0.0306  0.0355  1.0000  -5.0282   0.0000   0.0000   0.0000   0.2560
  11.800   1.4159   0.01663   0.01076  -0.0294  0.0346  1.0000  -5.1608   0.0000   0.0000   0.0000   0.2546
  12.000   1.4292   0.01703   0.01116  -0.0282  0.0334  1.0000  -5.2913   0.0000   0.0000   0.0000   0.2532
  12.200   1.4417   0.01749   0.01161  -0.0269  0.0320  1.0000  -5.4197   0.0000   0.0000   0.0000   0.2518
  12.400   1.4532   0.01800   0.01212  -0.0255  0.0304  1.0000  -5.5446   0.0000   0.0000   0.0000   0.2504
  12.600   1.4634   0.01860   0.01273  -0.0239  0.0284  1.0000  -5.6632   0.0000   0.0000   0.0000   0.2488
  12.800   1.4735   0.01923   0.01340  -0.0224  0.0269  1.0000  -5.7804   0.0000   0.0000   0.0000   0.2474
  13.000   1.4866   0.01968   0.01388  -0.0214  0.0267  1.0000  -5.9167   0.0000   0.0000   0.0000   0.2462
  13.200   1.4996   0.02015   0.01438  -0.0204  0.0265  1.0000  -6.0531   0.0000   0.0000   0.0000   0.2451
  13.400   1.5116   0.02068   0.01495  -0.0193  0.0261  1.0000  -6.1860   0.0000   0.0000   0.0000   0.2439
  13.600   1.5232   0.02125   0.01555  -0.0183  0.0257  1.0000  -6.3179   0.0000   0.0000   0.0000   0.2427
  13.800   1.5343   0.02187   0.01620  -0.0172  0.0252  1.0000  -6.4485   0.0000   0.0000   0.0000   0.2415
  14.000   1.5443   0.02258   0.01693  -0.0161  0.0246  1.0000  -6.5754   0.0000   0.0000   0.0000   0.2404
  14.200   1.5542   0.02333   0.01771  -0.0150  0.0239  1.0000  -6.7020   0.0000   0.0000   0.0000   0.2392
  14.400   1.5625   0.02419   0.01859  -0.0139  0.0232  1.0000  -6.8223   0.0000   0.0000   0.0000   0.2381
  14.600   1.5703   0.02511   0.01952  -0.0128  0.0224  1.0000  -6.9405   0.0000   0.0000   0.0000   0.2369
  14.800   1.5763   0.02620   0.02064  -0.0116  0.0215  1.0000  -7.0486   0.0000   0.0000   0.0000   0.2357
  15.000   1.5810   0.02744   0.02193  -0.0105  0.0204  1.0000  -7.1479   0.0000   0.0000   0.0000   0.2346


