xflr5 v6.61

 Calculated polar for: NACA 2414

 1 1 Reynolds number fixed          Mach number fixed         

 xtrf =   1.000 (top)        1.000 (bottom)
 Mach =   0.000     Re =     2.500 e 6     Ncrit =   9.000

  alpha     CL        CD       CDp       Cm    Top Xtr Bot Xtr   Cpmin    Chinge    XCp    
 ------- -------- --------- --------- -------- ------- ------- -------- --------- ---------
 -10.000  -0.8631   0.01050   0.00566  -0.0563  0.9679  0.0255  -5.1523   0.0000   0.0000   0.0000   0.1720
  -9.800  -0.8419   0.01032   0.00547  -0.0561  0.9634  0.0260  -4.9819   0.0000   0.0000   0.0000   0.1708
  -9.600  -0.8212   0.01016   0.00530  -0.0558  0.9597  0.0264  -4.8281   0.0000   0.0000   0.0000   0.1697
  -9.400  -0.8002   0.01002   0.00515  -0.0555  0.9546  0.0267  -4.6818   0.0000   0.0000   0.0000   0.1685
  -9.200  -0.7792   0.00989   0.00500  -0.0552  0.9486  0.0269  -4.5363   0.0000   0.0000   0.0000   0.1672
  -9.000  -0.7584   0.00969   0.00478  -0.0549  0.9429  0.0282  -4.3988   0.0000   0.0000   0.0000   0.1658
  -8.800  -0.7376   0.00946   0.00453  -0.0546  0.9373  0.0305  -4.2634   0.0000   0.0000   0.0000   0.1643
  -8.600  -0.7166   0.00927   0.00434  -0.0543  0.9309  0.0323  -4.1269   0.0000   0.0000   0.0000   0.1627
  -8.400  -0.6955   0.00910   0.00416  -0.0540  0.9244  0.0337  -3.9904   0.0000   0.0000   0.0000   0.1610
  -8.200  -0.6735   0.00895   0.00401  -0.0540  0.9203  0.0349  -3.8528   0.0000   0.0000   0.0000   0.1587
  -8.000  -0.6515   0.00881   0.00388  -0.0539  0.9152  0.0357  -3.7164   0.0000   0.0000   0.0000   0.1562
  -7.800  -0.6295   0.00871   0.00374  -0.0538  0.9089  0.0362  -3.5816   0.0000   0.0000   0.0000   0.1536
  -7.600  -0.6077   0.00860   0.00361  -0.0536  0.9011  0.0369  -3.4498   0.0000   0.0000   0.0000   0.1510
  -7.400  -0.5858   0.00842   0.00343  -0.0535  0.8961  0.0404  -3.3219   0.0000   0.0000   0.0000   0.1479
  -7.200  -0.5640   0.00826   0.00327  -0.0534  0.8888  0.0431  -3.1945   0.0000   0.0000   0.0000   0.1447
  -7.000  -0.5423   0.00814   0.00313  -0.0532  0.8801  0.0452  -3.0690   0.0000   0.0000   0.0000   0.1413
  -6.800  -0.5199   0.00803   0.00302  -0.0532  0.8739  0.0465  -2.9426   0.0000   0.0000   0.0000   0.1372
  -6.600  -0.4973   0.00794   0.00291  -0.0532  0.8676  0.0472  -2.8172   0.0000   0.0000   0.0000   0.1326
  -6.400  -0.4753   0.00781   0.00277  -0.0530  0.8594  0.0518  -2.6970   0.0000   0.0000   0.0000   0.1280
  -6.200  -0.4535   0.00768   0.00264  -0.0529  0.8503  0.0558  -2.5781   0.0000   0.0000   0.0000   0.1229
  -6.000  -0.4309   0.00757   0.00254  -0.0529  0.8435  0.0585  -2.4586   0.0000   0.0000   0.0000   0.1168
  -5.800  -0.4086   0.00749   0.00244  -0.0528  0.8335  0.0611  -2.3502   0.0000   0.0000   0.0000   0.1103
  -5.600  -0.3867   0.00738   0.00232  -0.0527  0.8233  0.0667  -2.2523   0.0000   0.0000   0.0000   0.1032
  -5.400  -0.3641   0.00727   0.00222  -0.0527  0.8160  0.0706  -2.1541   0.0000   0.0000   0.0000   0.0947
  -5.200  -0.3417   0.00721   0.00213  -0.0527  0.8058  0.0729  -2.0576   0.0000   0.0000   0.0000   0.0852
  -5.000  -0.3195   0.00711   0.00203  -0.0526  0.7955  0.0800  -1.9633   0.0000   0.0000   0.0000   0.0746
  -4.800  -0.2970   0.00701   0.00194  -0.0526  0.7863  0.0851  -1.8692   0.0000   0.0000   0.0000   0.0620
  -4.600  -0.2747   0.00698   0.00186  -0.0525  0.7733  0.0891  -1.7770   0.0000   0.0000   0.0000   0.0478
  -4.400  -0.2523   0.00685   0.00177  -0.0525  0.7648  0.0981  -1.6863   0.0000   0.0000   0.0000   0.0306
  -4.200  -0.2297   0.00679   0.00170  -0.0525  0.7545  0.1037  -1.5962   0.0000   0.0000   0.0000   0.0098
  -4.000  -0.2077   0.00671   0.00162  -0.0524  0.7410  0.1139  -1.5090   0.0000   0.0000   0.0000  -0.0143
  -3.800  -0.1849   0.00665   0.00156  -0.0524  0.7321  0.1194  -1.4279   0.0000   0.0000   0.0000  -0.0463
  -3.600  -0.1627   0.00659   0.00150  -0.0523  0.7187  0.1299  -1.3549   0.0000   0.0000   0.0000  -0.0851
  -3.400  -0.1400   0.00653   0.00143  -0.0524  0.7087  0.1370  -1.2819   0.0000   0.0000   0.0000  -0.1385
  -3.200  -0.1176   0.00645   0.00138  -0.0523  0.6978  0.1493  -1.2104   0.0000   0.0000   0.0000  -0.2111
  -3.000  -0.0953   0.00642   0.00133  -0.0523  0.6831  0.1597  -1.1401   0.0000   0.0000   0.0000  -0.3167
  -2.800  -0.0727   0.00634   0.00127  -0.0523  0.6739  0.1729  -1.0704   0.0000   0.0000   0.0000  -0.4911
  -2.600  -0.0503   0.00632   0.00124  -0.0523  0.6605  0.1835  -1.0048   0.0000   0.0000   0.0000  -0.8175
  -2.400  -0.0277   0.00626   0.00120  -0.0523  0.6501  0.1952  -0.9459   0.0000   0.0000   0.0000  -1.6866
  -2.200  -0.0052   0.00620   0.00116  -0.0523  0.6384  0.2108  -0.8882   0.0000   0.0000   0.0000  -9.9793
  -2.000   0.0172   0.00618   0.00113  -0.0523  0.6240  0.2245  -0.8313   0.0000   0.0000   0.0000   3.3530
  -1.800   0.0399   0.00612   0.00110  -0.0523  0.6154  0.2390  -0.7748   0.0000   0.0000   0.0000   1.5823
  -1.600   0.0623   0.00610   0.00108  -0.0523  0.6021  0.2536  -0.7257   0.0000   0.0000   0.0000   1.1011
  -1.400   0.0849   0.00606   0.00106  -0.0523  0.5914  0.2695  -0.6775   0.0000   0.0000   0.0000   0.8725
  -1.200   0.1074   0.00602   0.00104  -0.0523  0.5807  0.2876  -0.6301   0.0000   0.0000   0.0000   0.7408
  -1.000   0.1298   0.00601   0.00103  -0.0523  0.5664  0.3042  -0.5859   0.0000   0.0000   0.0000   0.6551
  -0.800   0.1526   0.00596   0.00102  -0.0523  0.5592  0.3231  -0.5689   0.0000   0.0000   0.0000   0.5939
  -0.600   0.1750   0.00594   0.00102  -0.0523  0.5477  0.3411  -0.5867   0.0000   0.0000   0.0000   0.5490
  -0.400   0.1974   0.00591   0.00101  -0.0523  0.5357  0.3625  -0.6052   0.0000   0.0000   0.0000   0.5143
  -0.200   0.2201   0.00585   0.00101  -0.0524  0.5285  0.3873  -0.6238   0.0000   0.0000   0.0000   0.4866
   0.000   0.2423   0.00582   0.00101  -0.0523  0.5175  0.4136  -0.6428   0.0000   0.0000   0.0000   0.4642
   0.200   0.2646   0.00577   0.00102  -0.0523  0.5065  0.4441  -0.6628   0.0000   0.0000   0.0000   0.4455
   0.400   0.2872   0.00569   0.00102  -0.0523  0.5002  0.4776  -0.6830   0.0000   0.0000   0.0000   0.4297
   0.600   0.3094   0.00567   0.00104  -0.0523  0.4904  0.5069  -0.7038   0.0000   0.0000   0.0000   0.4162
   1.000   0.3543   0.00559   0.00108  -0.0523  0.4737  0.5658  -0.7476   0.0000   0.0000   0.0000   0.3942
   1.200   0.3767   0.00557   0.00110  -0.0523  0.4656  0.5932  -0.7711   0.0000   0.0000   0.0000   0.3851
   1.400   0.3988   0.00557   0.00114  -0.0522  0.4547  0.6213  -0.7947   0.0000   0.0000   0.0000   0.3770
   1.600   0.4214   0.00554   0.00116  -0.0522  0.4481  0.6474  -0.8200   0.0000   0.0000   0.0000   0.3698
   1.800   0.4440   0.00551   0.00120  -0.0522  0.4418  0.6740  -0.8460   0.0000   0.0000   0.0000   0.3633
   2.000   0.4661   0.00552   0.00124  -0.0521  0.4327  0.6996  -0.8732   0.0000   0.0000   0.0000   0.3574
   2.200   0.4882   0.00553   0.00129  -0.0521  0.4220  0.7246  -0.9014   0.0000   0.0000   0.0000   0.3519
   2.400   0.5108   0.00551   0.00132  -0.0520  0.4172  0.7507  -0.9320   0.0000   0.0000   0.0000   0.3470
   2.600   0.5328   0.00553   0.00137  -0.0519  0.4078  0.7752  -0.9636   0.0000   0.0000   0.0000   0.3424
   2.800   0.5544   0.00557   0.00143  -0.0518  0.3948  0.8005  -0.9971   0.0000   0.0000   0.0000   0.3381
   3.000   0.5766   0.00557   0.00148  -0.0517  0.3888  0.8248  -1.0338   0.0000   0.0000   0.0000   0.3341
   3.200   0.5980   0.00562   0.00155  -0.0514  0.3772  0.8494  -1.0717   0.0000   0.0000   0.0000   0.3303
   3.400   0.6193   0.00566   0.00162  -0.0511  0.3656  0.8723  -1.1129   0.0000   0.0000   0.0000   0.3267
   3.600   0.6405   0.00571   0.00169  -0.0508  0.3554  0.8933  -1.1573   0.0000   0.0000   0.0000   0.3233
   3.800   0.6611   0.00582   0.00179  -0.0504  0.3407  0.9119  -1.2029   0.0000   0.0000   0.0000   0.3200
   4.000   0.6823   0.00589   0.00186  -0.0500  0.3316  0.9279  -1.2543   0.0000   0.0000   0.0000   0.3169
   4.200   0.7024   0.00603   0.00196  -0.0495  0.3151  0.9431  -1.3054   0.0000   0.0000   0.0000   0.3139
   4.400   0.7232   0.00612   0.00204  -0.0491  0.3066  0.9557  -1.3620   0.0000   0.0000   0.0000   0.3111
   4.600   0.7436   0.00630   0.00215  -0.0486  0.2898  0.9661  -1.4212   0.0000   0.0000   0.0000   0.3085
   4.800   0.7656   0.00644   0.00225  -0.0485  0.2776  0.9748  -1.4834   0.0000   0.0000   0.0000   0.3063
   5.000   0.7881   0.00660   0.00235  -0.0486  0.2641  0.9818  -1.5509   0.0000   0.0000   0.0000   0.3043
   5.200   0.8131   0.00681   0.00248  -0.0493  0.2487  0.9867  -1.6280   0.0000   0.0000   0.0000   0.3031
   5.400   0.8369   0.00700   0.00260  -0.0496  0.2334  0.9918  -1.7041   0.0000   0.0000   0.0000   0.3016
   5.600   0.8642   0.00723   0.00276  -0.0508  0.2175  0.9939  -1.7871   0.0000   0.0000   0.0000   0.3009
   5.800   0.8924   0.00747   0.00291  -0.0523  0.2028  0.9953  -1.8768   0.0000   0.0000   0.0000   0.3004
   6.000   0.9195   0.00769   0.00305  -0.0534  0.1883  0.9967  -1.9738   0.0000   0.0000   0.0000   0.2998
   6.200   0.9449   0.00795   0.00322  -0.0543  0.1712  0.9979  -2.0689   0.0000   0.0000   0.0000   0.2989
   6.400   0.9699   0.00822   0.00340  -0.0550  0.1557  0.9990  -2.1646   0.0000   0.0000   0.0000   0.2980
   6.600   0.9951   0.00846   0.00357  -0.0558  0.1445  0.9999  -2.2624   0.0000   0.0000   0.0000   0.2971
   6.800   1.0127   0.00865   0.00371  -0.0549  0.1347  1.0000  -2.3457   0.0000   0.0000   0.0000   0.2950
   7.000   1.0287   0.00888   0.00387  -0.0537  0.1249  1.0000  -2.4266   0.0000   0.0000   0.0000   0.2927
   7.200   1.0459   0.00906   0.00402  -0.0526  0.1166  1.0000  -2.5170   0.0000   0.0000   0.0000   0.2907
   7.400   1.0619   0.00933   0.00422  -0.0515  0.1052  1.0000  -2.6112   0.0000   0.0000   0.0000   0.2885
   7.600   1.0794   0.00953   0.00438  -0.0505  0.0978  1.0000  -2.7114   0.0000   0.0000   0.0000   0.2867
   7.800   1.0963   0.00980   0.00458  -0.0495  0.0884  1.0000  -2.8111   0.0000   0.0000   0.0000   0.2848
   8.000   1.1151   0.00997   0.00474  -0.0489  0.0840  1.0000  -2.9173   0.0000   0.0000   0.0000   0.2832
   8.200   1.1331   0.01022   0.00494  -0.0481  0.0777  1.0000  -3.0226   0.0000   0.0000   0.0000   0.2816
   8.400   1.1519   0.01044   0.00513  -0.0475  0.0718  1.0000  -3.1313   0.0000   0.0000   0.0000   0.2801
   8.600   1.1710   0.01065   0.00531  -0.0470  0.0682  1.0000  -3.2423   0.0000   0.0000   0.0000   0.2787
   8.800   1.1891   0.01092   0.00554  -0.0463  0.0628  1.0000  -3.3519   0.0000   0.0000   0.0000   0.2772
   9.000   1.2082   0.01113   0.00574  -0.0458  0.0587  1.0000  -3.4653   0.0000   0.0000   0.0000   0.2759
   9.200   1.2273   0.01134   0.00594  -0.0453  0.0562  1.0000  -3.5812   0.0000   0.0000   0.0000   0.2746
   9.400   1.2455   0.01161   0.00618  -0.0446  0.0527  1.0000  -3.6952   0.0000   0.0000   0.0000   0.2733
   9.600   1.2634   0.01189   0.00643  -0.0439  0.0476  1.0000  -3.8091   0.0000   0.0000   0.0000   0.2720
   9.800   1.2824   0.01209   0.00663  -0.0434  0.0461  1.0000  -3.9313   0.0000   0.0000   0.0000   0.2708
  10.000   1.3007   0.01234   0.00686  -0.0428  0.0437  1.0000  -4.0666   0.0000   0.0000   0.0000   0.2695
  10.200   1.3180   0.01264   0.00713  -0.0421  0.0410  1.0000  -4.2004   0.0000   0.0000   0.0000   0.2682
  10.400   1.3353   0.01294   0.00741  -0.0413  0.0375  1.0000  -4.3349   0.0000   0.0000   0.0000   0.2670
  10.600   1.3534   0.01317   0.00764  -0.0407  0.0362  1.0000  -4.4745   0.0000   0.0000   0.0000   0.2658
  10.800   1.3714   0.01340   0.00787  -0.0400  0.0355  1.0000  -4.6162   0.0000   0.0000   0.0000   0.2646
  11.000   1.3888   0.01366   0.00813  -0.0393  0.0343  1.0000  -4.7568   0.0000   0.0000   0.0000   0.2634
  11.200   1.4050   0.01395   0.00843  -0.0384  0.0328  1.0000  -4.8959   0.0000   0.0000   0.0000   0.2621
  11.400   1.4199   0.01429   0.00874  -0.0372  0.0310  1.0000  -5.0305   0.0000   0.0000   0.0000   0.2607
  11.600   1.4335   0.01463   0.00907  -0.0358  0.0288  1.0000  -5.1606   0.0000   0.0000   0.0000   0.2592
  11.800   1.4468   0.01497   0.00943  -0.0344  0.0269  1.0000  -5.2903   0.0000   0.0000   0.0000   0.2576
  12.000   1.4622   0.01523   0.00971  -0.0333  0.0268  1.0000  -5.4316   0.0000   0.0000   0.0000   0.2563
  12.200   1.4771   0.01552   0.01001  -0.0323  0.0265  1.0000  -5.5727   0.0000   0.0000   0.0000   0.2550
  12.400   1.4916   0.01583   0.01033  -0.0311  0.0261  1.0000  -5.7130   0.0000   0.0000   0.0000   0.2537
  12.600   1.5056   0.01618   0.01069  -0.0300  0.0255  1.0000  -5.8526   0.0000   0.0000   0.0000   0.2524
  12.800   1.5189   0.01657   0.01108  -0.0288  0.0247  1.0000  -5.9906   0.0000   0.0000   0.0000   0.2511
  13.000   1.5316   0.01700   0.01152  -0.0275  0.0239  1.0000  -6.1272   0.0000   0.0000   0.0000   0.2498
  13.200   1.5432   0.01748   0.01201  -0.0261  0.0229  1.0000  -6.2593   0.0000   0.0000   0.0000   0.2484
  13.400   1.5545   0.01800   0.01254  -0.0248  0.0218  1.0000  -6.3908   0.0000   0.0000   0.0000   0.2470
  13.600   1.5654   0.01857   0.01312  -0.0234  0.0205  1.0000  -6.5198   0.0000   0.0000   0.0000   0.2457
  13.800   1.5754   0.01920   0.01377  -0.0220  0.0194  1.0000  -6.6446   0.0000   0.0000   0.0000   0.2443
  14.000   1.5862   0.01978   0.01439  -0.0208  0.0188  1.0000  -6.7754   0.0000   0.0000   0.0000   0.2431
  14.200   1.5984   0.02029   0.01492  -0.0197  0.0188  1.0000  -6.9172   0.0000   0.0000   0.0000   0.2419
  14.400   1.6109   0.02081   0.01546  -0.0188  0.0187  1.0000  -7.0617   0.0000   0.0000   0.0000   0.2409
  14.600   1.6226   0.02138   0.01605  -0.0178  0.0185  1.0000  -7.2040   0.0000   0.0000   0.0000   0.2398
  14.800   1.6339   0.02199   0.01669  -0.0168  0.0183  1.0000  -7.3446   0.0000   0.0000   0.0000   0.2387
  15.000   1.6449   0.02265   0.01737  -0.0159  0.0181  1.0000  -7.4847   0.0000   0.0000   0.0000   0.2377


