xflr5 v6.61

 Calculated polar for: NACA 2414

 1 1 Reynolds number fixed          Mach number fixed         

 xtrf =   1.000 (top)        1.000 (bottom)
 Mach =   0.000     Re =     0.500 e 6     Ncrit =   9.000

  alpha     CL        CD       CDp       Cm    Top Xtr Bot Xtr   Cpmin    Chinge    XCp    
 ------- -------- --------- --------- -------- ------- ------- -------- --------- ---------
 -10.000  -0.9405   0.02064   0.01471  -0.0372  0.9987  0.0360  -5.2214   0.0000   0.0000   0.0000   0.1981
  -9.800  -0.9135   0.02027   0.01428  -0.0384  0.9971  0.0364  -5.0371   0.0000   0.0000   0.0000   0.1957
  -9.600  -0.8930   0.01867   0.01256  -0.0391  0.9951  0.0384  -4.9122   0.0000   0.0000   0.0000   0.1942
  -9.400  -0.8670   0.01799   0.01186  -0.0404  0.9936  0.0401  -4.7421   0.0000   0.0000   0.0000   0.1915
  -9.200  -0.8405   0.01755   0.01141  -0.0416  0.9919  0.0415  -4.5658   0.0000   0.0000   0.0000   0.1888
  -9.000  -0.8150   0.01717   0.01100  -0.0426  0.9894  0.0431  -4.4205   0.0000   0.0000   0.0000   0.1862
  -8.800  -0.7884   0.01680   0.01060  -0.0437  0.9870  0.0447  -4.2741   0.0000   0.0000   0.0000   0.1832
  -8.600  -0.7606   0.01648   0.01021  -0.0450  0.9850  0.0461  -4.1246   0.0000   0.0000   0.0000   0.1796
  -8.400  -0.7315   0.01624   0.00992  -0.0465  0.9833  0.0470  -3.9708   0.0000   0.0000   0.0000   0.1752
  -8.200  -0.7054   0.01537   0.00902  -0.0478  0.9816  0.0502  -3.8449   0.0000   0.0000   0.0000   0.1711
  -8.000  -0.6761   0.01495   0.00861  -0.0495  0.9804  0.0530  -3.6957   0.0000   0.0000   0.0000   0.1657
  -7.800  -0.6514   0.01467   0.00832  -0.0502  0.9771  0.0554  -3.5586   0.0000   0.0000   0.0000   0.1621
  -7.600  -0.6254   0.01443   0.00806  -0.0510  0.9737  0.0578  -3.4196   0.0000   0.0000   0.0000   0.1576
  -7.400  -0.5973   0.01411   0.00771  -0.0523  0.9712  0.0603  -3.2792   0.0000   0.0000   0.0000   0.1517
  -7.200  -0.5692   0.01355   0.00719  -0.0537  0.9691  0.0652  -3.1445   0.0000   0.0000   0.0000   0.1448
  -7.000  -0.5388   0.01324   0.00686  -0.0555  0.9675  0.0690  -3.0008   0.0000   0.0000   0.0000   0.1361
  -6.800  -0.5084   0.01300   0.00659  -0.0572  0.9658  0.0721  -2.8582   0.0000   0.0000   0.0000   0.1266
  -6.600  -0.4798   0.01252   0.00614  -0.0587  0.9640  0.0780  -2.7267   0.0000   0.0000   0.0000   0.1168
  -6.400  -0.4597   0.01226   0.00591  -0.0582  0.9581  0.0827  -2.6147   0.0000   0.0000   0.0000   0.1125
  -6.200  -0.4352   0.01206   0.00568  -0.0586  0.9536  0.0866  -2.4927   0.0000   0.0000   0.0000   0.1044
  -6.000  -0.4105   0.01168   0.00535  -0.0591  0.9499  0.0944  -2.3747   0.0000   0.0000   0.0000   0.0949
  -5.800  -0.3849   0.01145   0.00513  -0.0598  0.9467  0.1012  -2.2704   0.0000   0.0000   0.0000   0.0836
  -5.600  -0.3625   0.01116   0.00489  -0.0598  0.9422  0.1094  -2.1755   0.0000   0.0000   0.0000   0.0739
  -5.400  -0.3422   0.01095   0.00468  -0.0593  0.9355  0.1170  -2.0860   0.0000   0.0000   0.0000   0.0655
  -5.200  -0.3201   0.01069   0.00445  -0.0591  0.9298  0.1260  -1.9935   0.0000   0.0000   0.0000   0.0538
  -5.000  -0.2966   0.01047   0.00424  -0.0592  0.9248  0.1357  -1.8987   0.0000   0.0000   0.0000   0.0386
  -4.800  -0.2764   0.01024   0.00407  -0.0588  0.9177  0.1466  -1.8121   0.0000   0.0000   0.0000   0.0256
  -4.400  -0.2334   0.00983   0.00373  -0.0582  0.9044  0.1722  -1.6364   0.0000   0.0000   0.0000  -0.0118
  -4.200  -0.2118   0.00964   0.00358  -0.0580  0.8978  0.1861  -1.5502   0.0000   0.0000   0.0000  -0.0366
  -4.000  -0.1909   0.00949   0.00346  -0.0576  0.8893  0.1994  -1.4675   0.0000   0.0000   0.0000  -0.0649
  -3.800  -0.1693   0.00929   0.00330  -0.0573  0.8813  0.2156  -1.3953   0.0000   0.0000   0.0000  -0.1025
  -3.600  -0.1478   0.00912   0.00316  -0.0570  0.8734  0.2329  -1.3245   0.0000   0.0000   0.0000  -0.1510
  -3.400  -0.1267   0.00896   0.00305  -0.0567  0.8642  0.2508  -1.2550   0.0000   0.0000   0.0000  -0.2139
  -3.200  -0.1049   0.00882   0.00293  -0.0565  0.8556  0.2688  -1.1851   0.0000   0.0000   0.0000  -0.3067
  -3.000  -0.0833   0.00868   0.00283  -0.0562  0.8469  0.2880  -1.1168   0.0000   0.0000   0.0000  -0.4462
  -2.800  -0.0621   0.00852   0.00274  -0.0559  0.8366  0.3095  -1.0500   0.0000   0.0000   0.0000  -0.6767
  -2.600  -0.0406   0.00839   0.00263  -0.0556  0.8267  0.3321  -0.9894   0.0000   0.0000   0.0000  -1.1570
  -2.400  -0.0192   0.00825   0.00256  -0.0554  0.8168  0.3547  -0.9327   0.0000   0.0000   0.0000  -2.7071
  -2.200   0.0022   0.00812   0.00248  -0.0551  0.8062  0.3801  -0.8768   0.0000   0.0000   0.0000  26.4152
  -2.000   0.0234   0.00798   0.00240  -0.0548  0.7958  0.4099  -0.8217   0.0000   0.0000   0.0000   2.6395
  -1.800   0.0444   0.00783   0.00235  -0.0545  0.7844  0.4432  -0.7685   0.0000   0.0000   0.0000   1.4967
  -1.400   0.0861   0.00756   0.00226  -0.0537  0.7621  0.5194  -0.6758   0.0000   0.0000   0.0000   0.8805
  -1.200   0.1070   0.00745   0.00222  -0.0533  0.7499  0.5571  -0.6303   0.0000   0.0000   0.0000   0.7525
  -1.000   0.1278   0.00737   0.00220  -0.0528  0.7383  0.5934  -0.5879   0.0000   0.0000   0.0000   0.6660
  -0.800   0.1487   0.00727   0.00219  -0.0524  0.7260  0.6277  -0.5660   0.0000   0.0000   0.0000   0.6038
  -0.600   0.1691   0.00723   0.00218  -0.0518  0.7137  0.6609  -0.5828   0.0000   0.0000   0.0000   0.5568
  -0.400   0.1900   0.00714   0.00220  -0.0514  0.7022  0.6935  -0.6005   0.0000   0.0000   0.0000   0.5200
  -0.200   0.2105   0.00711   0.00221  -0.0508  0.6893  0.7246  -0.6180   0.0000   0.0000   0.0000   0.4902
   0.000   0.2312   0.00707   0.00223  -0.0503  0.6777  0.7549  -0.6360   0.0000   0.0000   0.0000   0.4658
   0.200   0.2518   0.00705   0.00226  -0.0497  0.6654  0.7840  -0.6550   0.0000   0.0000   0.0000   0.4452
   0.400   0.2719   0.00707   0.00230  -0.0490  0.6530  0.8121  -0.6739   0.0000   0.0000   0.0000   0.4276
   0.600   0.2926   0.00706   0.00235  -0.0484  0.6415  0.8385  -0.6936   0.0000   0.0000   0.0000   0.4124
   0.800   0.3128   0.00712   0.00239  -0.0476  0.6293  0.8634  -0.7140   0.0000   0.0000   0.0000   0.3991
   1.000   0.3335   0.00716   0.00246  -0.0470  0.6185  0.8858  -0.7349   0.0000   0.0000   0.0000   0.3874
   1.200   0.3545   0.00723   0.00252  -0.0464  0.6067  0.9061  -0.7571   0.0000   0.0000   0.0000   0.3772
   1.400   0.3753   0.00736   0.00258  -0.0458  0.5949  0.9245  -0.7798   0.0000   0.0000   0.0000   0.3681
   1.600   0.3995   0.00743   0.00266  -0.0459  0.5849  0.9389  -0.8053   0.0000   0.0000   0.0000   0.3608
   1.800   0.4244   0.00756   0.00273  -0.0463  0.5733  0.9508  -0.8329   0.0000   0.0000   0.0000   0.3547
   2.000   0.4483   0.00769   0.00281  -0.0465  0.5628  0.9629  -0.8606   0.0000   0.0000   0.0000   0.3491
   2.200   0.4791   0.00780   0.00290  -0.0481  0.5521  0.9692  -0.8948   0.0000   0.0000   0.0000   0.3458
   2.400   0.5080   0.00796   0.00297  -0.0495  0.5406  0.9763  -0.9299   0.0000   0.0000   0.0000   0.3425
   2.600   0.5389   0.00807   0.00306  -0.0512  0.5307  0.9814  -0.9684   0.0000   0.0000   0.0000   0.3400
   2.800   0.5726   0.00819   0.00312  -0.0537  0.5195  0.9848  -1.0122   0.0000   0.0000   0.0000   0.3385
   3.000   0.6040   0.00836   0.00320  -0.0557  0.5076  0.9892  -1.0581   0.0000   0.0000   0.0000   0.3368
   3.200   0.6358   0.00844   0.00328  -0.0577  0.4984  0.9933  -1.1084   0.0000   0.0000   0.0000   0.3352
   3.400   0.6697   0.00856   0.00333  -0.0602  0.4868  0.9964  -1.1650   0.0000   0.0000   0.0000   0.3342
   3.600   0.7043   0.00870   0.00344  -0.0629  0.4756  0.9999  -1.2265   0.0000   0.0000   0.0000   0.3334
   3.800   0.7229   0.00875   0.00348  -0.0622  0.4663  1.0000  -1.2754   0.0000   0.0000   0.0000   0.3300
   4.000   0.7402   0.00887   0.00353  -0.0613  0.4562  1.0000  -1.3232   0.0000   0.0000   0.0000   0.3265
   4.200   0.7578   0.00897   0.00361  -0.0604  0.4468  1.0000  -1.3756   0.0000   0.0000   0.0000   0.3232
   4.400   0.7759   0.00905   0.00367  -0.0596  0.4372  1.0000  -1.4315   0.0000   0.0000   0.0000   0.3201
   4.600   0.7927   0.00920   0.00375  -0.0585  0.4262  1.0000  -1.4865   0.0000   0.0000   0.0000   0.3169
   4.800   0.8107   0.00930   0.00384  -0.0576  0.4167  1.0000  -1.5450   0.0000   0.0000   0.0000   0.3140
   5.000   0.8284   0.00942   0.00392  -0.0567  0.4055  1.0000  -1.6100   0.0000   0.0000   0.0000   0.3112
   5.200   0.8451   0.00959   0.00403  -0.0556  0.3937  1.0000  -1.6742   0.0000   0.0000   0.0000   0.3083
   5.400   0.8634   0.00970   0.00413  -0.0548  0.3825  1.0000  -1.7416   0.0000   0.0000   0.0000   0.3058
   5.600   0.8799   0.00991   0.00427  -0.0537  0.3693  1.0000  -1.8070   0.0000   0.0000   0.0000   0.3031
   5.800   0.8980   0.01004   0.00440  -0.0529  0.3576  1.0000  -1.8779   0.0000   0.0000   0.0000   0.3007
   6.000   0.9143   0.01027   0.00454  -0.0517  0.3428  1.0000  -1.9537   0.0000   0.0000   0.0000   0.2982
   6.200   0.9321   0.01044   0.00468  -0.0508  0.3299  1.0000  -2.0335   0.0000   0.0000   0.0000   0.2959
   6.400   0.9483   0.01070   0.00485  -0.0497  0.3153  1.0000  -2.1109   0.0000   0.0000   0.0000   0.2936
   6.600   0.9661   0.01090   0.00502  -0.0488  0.3012  1.0000  -2.1925   0.0000   0.0000   0.0000   0.2915
   6.800   0.9827   0.01117   0.00522  -0.0478  0.2855  1.0000  -2.2727   0.0000   0.0000   0.0000   0.2894
   7.000   0.9991   0.01148   0.00543  -0.0468  0.2687  1.0000  -2.3533   0.0000   0.0000   0.0000   0.2873
   7.200   1.0167   0.01173   0.00564  -0.0459  0.2543  1.0000  -2.4371   0.0000   0.0000   0.0000   0.2854
   7.400   1.0332   0.01206   0.00589  -0.0450  0.2391  1.0000  -2.5246   0.0000   0.0000   0.0000   0.2835
   7.600   1.0495   0.01241   0.00618  -0.0440  0.2227  1.0000  -2.6187   0.0000   0.0000   0.0000   0.2817
   7.800   1.0662   0.01274   0.00645  -0.0431  0.2068  1.0000  -2.7160   0.0000   0.0000   0.0000   0.2799
   8.000   1.0822   0.01313   0.00675  -0.0420  0.1908  1.0000  -2.8125   0.0000   0.0000   0.0000   0.2781
   8.200   1.0976   0.01356   0.00708  -0.0410  0.1751  1.0000  -2.9083   0.0000   0.0000   0.0000   0.2763
   8.400   1.1135   0.01394   0.00740  -0.0400  0.1614  1.0000  -3.0069   0.0000   0.0000   0.0000   0.2746
   8.600   1.1294   0.01433   0.00773  -0.0390  0.1491  1.0000  -3.1062   0.0000   0.0000   0.0000   0.2730
   8.800   1.1439   0.01479   0.00812  -0.0378  0.1366  1.0000  -3.2027   0.0000   0.0000   0.0000   0.2713
   9.000   1.1593   0.01519   0.00848  -0.0367  0.1260  1.0000  -3.3028   0.0000   0.0000   0.0000   0.2696
   9.200   1.1738   0.01564   0.00888  -0.0355  0.1160  1.0000  -3.4008   0.0000   0.0000   0.0000   0.2680
   9.400   1.1874   0.01612   0.00930  -0.0342  0.1063  1.0000  -3.4977   0.0000   0.0000   0.0000   0.2663
   9.600   1.2015   0.01655   0.00973  -0.0330  0.0985  1.0000  -3.5971   0.0000   0.0000   0.0000   0.2646
   9.800   1.2132   0.01704   0.01017  -0.0313  0.0910  1.0000  -3.6900   0.0000   0.0000   0.0000   0.2627
  10.000   1.2250   0.01751   0.01063  -0.0297  0.0850  1.0000  -3.7835   0.0000   0.0000   0.0000   0.2608
  10.200   1.2373   0.01796   0.01108  -0.0282  0.0800  1.0000  -3.8802   0.0000   0.0000   0.0000   0.2591
  10.400   1.2470   0.01858   0.01166  -0.0264  0.0745  1.0000  -3.9821   0.0000   0.0000   0.0000   0.2572
  10.600   1.2589   0.01908   0.01219  -0.0250  0.0708  1.0000  -4.0924   0.0000   0.0000   0.0000   0.2555
  10.800   1.2713   0.01957   0.01270  -0.0237  0.0675  1.0000  -4.2058   0.0000   0.0000   0.0000   0.2540
  11.000   1.2815   0.02019   0.01331  -0.0221  0.0639  1.0000  -4.3129   0.0000   0.0000   0.0000   0.2523
  11.200   1.2875   0.02108   0.01419  -0.0201  0.0598  1.0000  -4.4022   0.0000   0.0000   0.0000   0.2504
  11.400   1.2994   0.02164   0.01480  -0.0189  0.0580  1.0000  -4.5158   0.0000   0.0000   0.0000   0.2490
  11.600   1.3112   0.02221   0.01542  -0.0177  0.0560  1.0000  -4.6304   0.0000   0.0000   0.0000   0.2476
  11.800   1.3213   0.02290   0.01616  -0.0165  0.0538  1.0000  -4.7404   0.0000   0.0000   0.0000   0.2462
  12.000   1.3296   0.02373   0.01699  -0.0151  0.0516  1.0000  -4.8435   0.0000   0.0000   0.0000   0.2447
  12.200   1.3341   0.02484   0.01812  -0.0134  0.0491  1.0000  -4.9299   0.0000   0.0000   0.0000   0.2431
  12.400   1.3368   0.02613   0.01946  -0.0117  0.0470  1.0000  -5.0067   0.0000   0.0000   0.0000   0.2414
  12.600   1.3485   0.02681   0.02020  -0.0109  0.0460  1.0000  -5.1255   0.0000   0.0000   0.0000   0.2404
  12.800   1.3585   0.02762   0.02106  -0.0100  0.0447  1.0000  -5.2377   0.0000   0.0000   0.0000   0.2393
  13.000   1.3671   0.02856   0.02205  -0.0091  0.0433  1.0000  -5.3449   0.0000   0.0000   0.0000   0.2382
  13.200   1.3747   0.02962   0.02315  -0.0082  0.0419  1.0000  -5.4481   0.0000   0.0000   0.0000   0.2372
  13.400   1.3802   0.03089   0.02445  -0.0073  0.0407  1.0000  -5.5425   0.0000   0.0000   0.0000   0.2361
  13.600   1.3835   0.03239   0.02598  -0.0064  0.0394  1.0000  -5.6260   0.0000   0.0000   0.0000   0.2350
  13.800   1.3829   0.03427   0.02792  -0.0054  0.0381  1.0000  -5.6893   0.0000   0.0000   0.0000   0.2339
  14.000   1.3770   0.03669   0.03042  -0.0043  0.0367  1.0000  -5.7240   0.0000   0.0000   0.0000   0.2327
  14.200   1.3795   0.03843   0.03224  -0.0037  0.0362  1.0000  -5.8009   0.0000   0.0000   0.0000   0.2319
  14.400   1.3860   0.03984   0.03372  -0.0034  0.0358  1.0000  -5.8984   0.0000   0.0000   0.0000   0.2312
  14.600   1.3910   0.04143   0.03540  -0.0031  0.0353  1.0000  -5.9888   0.0000   0.0000   0.0000   0.2306
  14.800   1.3951   0.04314   0.03718  -0.0029  0.0347  1.0000  -6.0745   0.0000   0.0000   0.0000   0.2300
  15.000   1.3981   0.04499   0.03911  -0.0027  0.0340  1.0000  -6.1549   0.0000   0.0000   0.0000   0.2294


