xflr5 v6.61

 Calculated polar for: NACA 2414

 1 1 Reynolds number fixed          Mach number fixed         

 xtrf =   1.000 (top)        1.000 (bottom)
 Mach =   0.000     Re =     1.000 e 6     Ncrit =   9.000

  alpha     CL        CD       CDp       Cm    Top Xtr Bot Xtr   Cpmin    Chinge    XCp    
 ------- -------- --------- --------- -------- ------- ------- -------- --------- ---------
 -10.000  -0.8837   0.01416   0.00866  -0.0512  0.9866  0.0309  -5.1622   0.0000   0.0000   0.0000   0.1794
  -9.800  -0.8576   0.01382   0.00833  -0.0522  0.9852  0.0322  -4.9764   0.0000   0.0000   0.0000   0.1767
  -9.600  -0.8308   0.01351   0.00802  -0.0533  0.9840  0.0334  -4.7908   0.0000   0.0000   0.0000   0.1735
  -9.400  -0.8035   0.01323   0.00772  -0.0545  0.9830  0.0345  -4.6278   0.0000   0.0000   0.0000   0.1699
  -9.200  -0.7756   0.01298   0.00745  -0.0559  0.9821  0.0354  -4.4666   0.0000   0.0000   0.0000   0.1659
  -9.000  -0.7475   0.01276   0.00719  -0.0572  0.9812  0.0361  -4.3049   0.0000   0.0000   0.0000   0.1615
  -8.800  -0.7201   0.01249   0.00691  -0.0584  0.9801  0.0368  -4.1506   0.0000   0.0000   0.0000   0.1571
  -8.600  -0.7009   0.01202   0.00641  -0.0579  0.9758  0.0396  -4.0329   0.0000   0.0000   0.0000   0.1558
  -8.400  -0.6777   0.01171   0.00611  -0.0582  0.9723  0.0418  -3.8954   0.0000   0.0000   0.0000   0.1526
  -8.200  -0.6536   0.01145   0.00586  -0.0586  0.9691  0.0437  -3.7551   0.0000   0.0000   0.0000   0.1489
  -8.000  -0.6293   0.01123   0.00563  -0.0590  0.9660  0.0454  -3.6157   0.0000   0.0000   0.0000   0.1449
  -7.800  -0.6059   0.01105   0.00543  -0.0592  0.9622  0.0466  -3.4803   0.0000   0.0000   0.0000   0.1410
  -7.600  -0.5860   0.01088   0.00524  -0.0586  0.9563  0.0475  -3.3568   0.0000   0.0000   0.0000   0.1388
  -7.400  -0.5658   0.01055   0.00491  -0.0582  0.9509  0.0518  -3.2393   0.0000   0.0000   0.0000   0.1361
  -7.200  -0.5439   0.01031   0.00468  -0.0581  0.9463  0.0550  -3.1149   0.0000   0.0000   0.0000   0.1323
  -7.000  -0.5227   0.01015   0.00452  -0.0578  0.9414  0.0576  -2.9919   0.0000   0.0000   0.0000   0.1285
  -6.800  -0.5015   0.01003   0.00438  -0.0575  0.9359  0.0591  -2.8704   0.0000   0.0000   0.0000   0.1245
  -6.600  -0.4807   0.00977   0.00413  -0.0571  0.9302  0.0644  -2.7553   0.0000   0.0000   0.0000   0.1203
  -6.400  -0.4593   0.00957   0.00394  -0.0569  0.9247  0.0685  -2.6377   0.0000   0.0000   0.0000   0.1153
  -6.200  -0.4378   0.00943   0.00379  -0.0567  0.9188  0.0716  -2.5212   0.0000   0.0000   0.0000   0.1098
  -6.000  -0.4164   0.00926   0.00362  -0.0564  0.9117  0.0760  -2.4078   0.0000   0.0000   0.0000   0.1038
  -5.800  -0.3952   0.00907   0.00345  -0.0561  0.9047  0.0820  -2.3097   0.0000   0.0000   0.0000   0.0973
  -5.600  -0.3733   0.00894   0.00331  -0.0559  0.8984  0.0863  -2.2128   0.0000   0.0000   0.0000   0.0893
  -5.400  -0.3517   0.00878   0.00315  -0.0558  0.8915  0.0931  -2.1190   0.0000   0.0000   0.0000   0.0805
  -5.200  -0.3300   0.00862   0.00301  -0.0556  0.8841  0.1002  -2.0252   0.0000   0.0000   0.0000   0.0707
  -5.000  -0.3083   0.00849   0.00287  -0.0553  0.8763  0.1080  -1.9326   0.0000   0.0000   0.0000   0.0593
  -4.800  -0.2865   0.00833   0.00275  -0.0552  0.8689  0.1167  -1.8410   0.0000   0.0000   0.0000   0.0459
  -4.600  -0.2646   0.00821   0.00263  -0.0550  0.8599  0.1250  -1.7508   0.0000   0.0000   0.0000   0.0305
  -4.400  -0.2430   0.00809   0.00251  -0.0548  0.8507  0.1346  -1.6622   0.0000   0.0000   0.0000   0.0125
  -4.200  -0.2208   0.00796   0.00241  -0.0547  0.8430  0.1446  -1.5740   0.0000   0.0000   0.0000  -0.0101
  -4.000  -0.1989   0.00785   0.00231  -0.0546  0.8336  0.1551  -1.4875   0.0000   0.0000   0.0000  -0.0372
  -3.800  -0.1773   0.00773   0.00221  -0.0544  0.8237  0.1691  -1.4124   0.0000   0.0000   0.0000  -0.0702
  -3.600  -0.1551   0.00762   0.00211  -0.0543  0.8144  0.1819  -1.3399   0.0000   0.0000   0.0000  -0.1145
  -3.400  -0.1333   0.00752   0.00203  -0.0541  0.8034  0.1950  -1.2687   0.0000   0.0000   0.0000  -0.1715
  -3.200  -0.1113   0.00742   0.00195  -0.0540  0.7938  0.2092  -1.1982   0.0000   0.0000   0.0000  -0.2522
  -3.000  -0.0891   0.00733   0.00188  -0.0539  0.7835  0.2235  -1.1284   0.0000   0.0000   0.0000  -0.3749
  -2.800  -0.0675   0.00726   0.00181  -0.0537  0.7714  0.2407  -1.0606   0.0000   0.0000   0.0000  -0.5689
  -2.600  -0.0454   0.00715   0.00176  -0.0536  0.7612  0.2588  -0.9972   0.0000   0.0000   0.0000  -0.9641
  -2.400  -0.0234   0.00709   0.00170  -0.0535  0.7492  0.2747  -0.9395   0.0000   0.0000   0.0000  -2.0902
  -2.200  -0.0014   0.00703   0.00165  -0.0534  0.7382  0.2925  -0.8824   0.0000   0.0000   0.0000  -37.7868
  -2.000   0.0206   0.00694   0.00161  -0.0533  0.7268  0.3138  -0.8261   0.0000   0.0000   0.0000   2.8797
  -1.600   0.0643   0.00680   0.00152  -0.0530  0.7028  0.3562  -0.7232   0.0000   0.0000   0.0000   1.0848
  -1.400   0.0860   0.00673   0.00149  -0.0528  0.6902  0.3814  -0.6763   0.0000   0.0000   0.0000   0.8710
  -1.200   0.1078   0.00666   0.00146  -0.0527  0.6786  0.4081  -0.6298   0.0000   0.0000   0.0000   0.7428
  -1.000   0.1295   0.00656   0.00144  -0.0525  0.6662  0.4408  -0.5865   0.0000   0.0000   0.0000   0.6580
  -0.800   0.1507   0.00650   0.00143  -0.0523  0.6531  0.4772  -0.5677   0.0000   0.0000   0.0000   0.5979
  -0.600   0.1727   0.00640   0.00142  -0.0522  0.6427  0.5114  -0.5853   0.0000   0.0000   0.0000   0.5522
  -0.400   0.1938   0.00635   0.00143  -0.0519  0.6294  0.5470  -0.6031   0.0000   0.0000   0.0000   0.5171
  -0.200   0.2155   0.00628   0.00143  -0.0517  0.6185  0.5803  -0.6213   0.0000   0.0000   0.0000   0.4887
   0.000   0.2372   0.00624   0.00144  -0.0515  0.6068  0.6112  -0.6399   0.0000   0.0000   0.0000   0.4655
   0.200   0.2585   0.00622   0.00146  -0.0512  0.5942  0.6422  -0.6593   0.0000   0.0000   0.0000   0.4461
   0.400   0.2804   0.00617   0.00148  -0.0511  0.5843  0.6714  -0.6791   0.0000   0.0000   0.0000   0.4296
   0.600   0.3016   0.00616   0.00151  -0.0508  0.5722  0.7006  -0.6992   0.0000   0.0000   0.0000   0.4155
   0.800   0.3232   0.00614   0.00154  -0.0505  0.5621  0.7289  -0.7205   0.0000   0.0000   0.0000   0.4031
   1.000   0.3448   0.00611   0.00158  -0.0503  0.5520  0.7570  -0.7419   0.0000   0.0000   0.0000   0.3923
   1.200   0.3657   0.00614   0.00162  -0.0499  0.5402  0.7846  -0.7642   0.0000   0.0000   0.0000   0.3826
   1.400   0.3872   0.00612   0.00167  -0.0495  0.5317  0.8112  -0.7875   0.0000   0.0000   0.0000   0.3740
   1.600   0.4084   0.00612   0.00172  -0.0492  0.5223  0.8371  -0.8114   0.0000   0.0000   0.0000   0.3662
   1.800   0.4290   0.00617   0.00178  -0.0487  0.5112  0.8610  -0.8362   0.0000   0.0000   0.0000   0.3590
   2.000   0.4502   0.00619   0.00184  -0.0482  0.5033  0.8835  -0.8621   0.0000   0.0000   0.0000   0.3526
   2.200   0.4713   0.00623   0.00191  -0.0478  0.4948  0.9037  -0.8896   0.0000   0.0000   0.0000   0.3466
   2.400   0.4918   0.00631   0.00198  -0.0472  0.4847  0.9225  -0.9179   0.0000   0.0000   0.0000   0.3411
   2.600   0.5132   0.00639   0.00206  -0.0468  0.4762  0.9379  -0.9482   0.0000   0.0000   0.0000   0.3361
   2.800   0.5358   0.00645   0.00213  -0.0467  0.4684  0.9506  -0.9822   0.0000   0.0000   0.0000   0.3319
   3.000   0.5578   0.00657   0.00220  -0.0465  0.4587  0.9623  -1.0174   0.0000   0.0000   0.0000   0.3279
   3.200   0.5839   0.00669   0.00228  -0.0473  0.4487  0.9696  -1.0585   0.0000   0.0000   0.0000   0.3253
   3.400   0.6089   0.00677   0.00235  -0.0478  0.4408  0.9773  -1.1030   0.0000   0.0000   0.0000   0.3226
   3.600   0.6360   0.00691   0.00243  -0.0488  0.4299  0.9822  -1.1526   0.0000   0.0000   0.0000   0.3207
   3.800   0.6655   0.00704   0.00253  -0.0503  0.4194  0.9854  -1.2078   0.0000   0.0000   0.0000   0.3194
   4.000   0.6952   0.00715   0.00261  -0.0520  0.4090  0.9885  -1.2699   0.0000   0.0000   0.0000   0.3184
   4.200   0.7233   0.00734   0.00271  -0.0532  0.3948  0.9922  -1.3310   0.0000   0.0000   0.0000   0.3171
   4.400   0.7549   0.00745   0.00280  -0.0553  0.3842  0.9942  -1.4052   0.0000   0.0000   0.0000   0.3165
   4.600   0.7866   0.00765   0.00290  -0.0574  0.3677  0.9965  -1.4808   0.0000   0.0000   0.0000   0.3161
   4.800   0.8177   0.00778   0.00299  -0.0594  0.3550  0.9987  -1.5604   0.0000   0.0000   0.0000   0.3155
   5.000   0.8445   0.00798   0.00311  -0.0605  0.3396  1.0000  -1.6404   0.0000   0.0000   0.0000   0.3143
   5.200   0.8618   0.00811   0.00319  -0.0595  0.3269  1.0000  -1.7060   0.0000   0.0000   0.0000   0.3115
   5.400   0.8785   0.00829   0.00332  -0.0584  0.3129  1.0000  -1.7713   0.0000   0.0000   0.0000   0.3088
   5.600   0.8957   0.00844   0.00342  -0.0574  0.3010  1.0000  -1.8383   0.0000   0.0000   0.0000   0.3062
   5.800   0.9123   0.00864   0.00355  -0.0563  0.2866  1.0000  -1.9117   0.0000   0.0000   0.0000   0.3036
   6.000   0.9286   0.00887   0.00369  -0.0551  0.2705  1.0000  -1.9880   0.0000   0.0000   0.0000   0.3010
   6.200   0.9457   0.00906   0.00383  -0.0541  0.2570  1.0000  -2.0669   0.0000   0.0000   0.0000   0.2987
   6.400   0.9619   0.00931   0.00400  -0.0530  0.2419  1.0000  -2.1449   0.0000   0.0000   0.0000   0.2963
   6.600   0.9793   0.00951   0.00415  -0.0520  0.2296  1.0000  -2.2263   0.0000   0.0000   0.0000   0.2941
   6.800   0.9957   0.00977   0.00433  -0.0509  0.2148  1.0000  -2.3066   0.0000   0.0000   0.0000   0.2919
   7.000   1.0116   0.01009   0.00454  -0.0498  0.1975  1.0000  -2.3865   0.0000   0.0000   0.0000   0.2897
   7.200   1.0286   0.01035   0.00474  -0.0488  0.1837  1.0000  -2.4699   0.0000   0.0000   0.0000   0.2877
   7.400   1.0458   0.01063   0.00496  -0.0479  0.1709  1.0000  -2.5652   0.0000   0.0000   0.0000   0.2858
   7.800   1.0803   0.01122   0.00542  -0.0462  0.1464  1.0000  -2.7629   0.0000   0.0000   0.0000   0.2823
   8.000   1.0975   0.01153   0.00567  -0.0453  0.1349  1.0000  -2.8634   0.0000   0.0000   0.0000   0.2806
   8.200   1.1145   0.01186   0.00593  -0.0445  0.1239  1.0000  -2.9650   0.0000   0.0000   0.0000   0.2789
   8.400   1.1320   0.01217   0.00619  -0.0437  0.1141  1.0000  -3.0688   0.0000   0.0000   0.0000   0.2774
   8.600   1.1482   0.01255   0.00650  -0.0427  0.1027  1.0000  -3.1705   0.0000   0.0000   0.0000   0.2757
   8.800   1.1658   0.01284   0.00676  -0.0420  0.0958  1.0000  -3.2771   0.0000   0.0000   0.0000   0.2743
   9.000   1.1820   0.01322   0.00708  -0.0410  0.0870  1.0000  -3.3810   0.0000   0.0000   0.0000   0.2727
   9.200   1.1997   0.01350   0.00734  -0.0403  0.0823  1.0000  -3.4903   0.0000   0.0000   0.0000   0.2713
   9.400   1.2157   0.01387   0.00768  -0.0393  0.0759  1.0000  -3.5964   0.0000   0.0000   0.0000   0.2698
   9.600   1.2325   0.01418   0.00799  -0.0385  0.0711  1.0000  -3.7055   0.0000   0.0000   0.0000   0.2684
   9.800   1.2490   0.01451   0.00830  -0.0376  0.0670  1.0000  -3.8148   0.0000   0.0000   0.0000   0.2670
  10.000   1.2639   0.01491   0.00866  -0.0365  0.0619  1.0000  -3.9234   0.0000   0.0000   0.0000   0.2654
  10.200   1.2797   0.01524   0.00900  -0.0354  0.0584  1.0000  -4.0484   0.0000   0.0000   0.0000   0.2640
  10.400   1.2949   0.01555   0.00931  -0.0343  0.0561  1.0000  -4.1739   0.0000   0.0000   0.0000   0.2625
  10.600   1.3080   0.01593   0.00968  -0.0329  0.0531  1.0000  -4.2931   0.0000   0.0000   0.0000   0.2609
  10.800   1.3198   0.01639   0.01011  -0.0313  0.0492  1.0000  -4.4082   0.0000   0.0000   0.0000   0.2591
  11.000   1.3329   0.01679   0.01053  -0.0299  0.0467  1.0000  -4.5288   0.0000   0.0000   0.0000   0.2575
  11.200   1.3474   0.01712   0.01089  -0.0288  0.0454  1.0000  -4.6578   0.0000   0.0000   0.0000   0.2562
  11.400   1.3607   0.01753   0.01132  -0.0275  0.0436  1.0000  -4.7836   0.0000   0.0000   0.0000   0.2547
  11.600   1.3727   0.01802   0.01180  -0.0261  0.0415  1.0000  -4.9048   0.0000   0.0000   0.0000   0.2532
  11.800   1.3837   0.01858   0.01235  -0.0247  0.0391  1.0000  -5.0219   0.0000   0.0000   0.0000   0.2516
  12.000   1.3921   0.01930   0.01309  -0.0229  0.0364  1.0000  -5.1265   0.0000   0.0000   0.0000   0.2499
  12.200   1.4060   0.01970   0.01354  -0.0219  0.0360  1.0000  -5.2587   0.0000   0.0000   0.0000   0.2487
  12.400   1.4190   0.02017   0.01404  -0.0208  0.0353  1.0000  -5.3880   0.0000   0.0000   0.0000   0.2475
  12.600   1.4313   0.02069   0.01459  -0.0197  0.0345  1.0000  -5.5156   0.0000   0.0000   0.0000   0.2463
  12.800   1.4424   0.02129   0.01522  -0.0186  0.0335  1.0000  -5.6388   0.0000   0.0000   0.0000   0.2450
  13.000   1.4525   0.02197   0.01591  -0.0173  0.0324  1.0000  -5.7585   0.0000   0.0000   0.0000   0.2437
  13.200   1.4617   0.02273   0.01669  -0.0161  0.0313  1.0000  -5.8753   0.0000   0.0000   0.0000   0.2424
  13.400   1.4697   0.02360   0.01757  -0.0148  0.0300  1.0000  -5.9862   0.0000   0.0000   0.0000   0.2411
  13.600   1.4756   0.02466   0.01867  -0.0134  0.0285  1.0000  -6.0855   0.0000   0.0000   0.0000   0.2397
  13.800   1.4777   0.02601   0.02011  -0.0118  0.0271  1.0000  -6.1647   0.0000   0.0000   0.0000   0.2382
  14.000   1.4859   0.02695   0.02110  -0.0108  0.0268  1.0000  -6.2782   0.0000   0.0000   0.0000   0.2371
  14.200   1.4960   0.02778   0.02197  -0.0100  0.0266  1.0000  -6.4029   0.0000   0.0000   0.0000   0.2362
  14.400   1.5050   0.02873   0.02297  -0.0093  0.0263  1.0000  -6.5226   0.0000   0.0000   0.0000   0.2352
  14.600   1.5136   0.02972   0.02401  -0.0086  0.0260  1.0000  -6.6413   0.0000   0.0000   0.0000   0.2343
  14.800   1.5211   0.03085   0.02519  -0.0079  0.0256  1.0000  -6.7543   0.0000   0.0000   0.0000   0.2334
  15.000   1.5281   0.03203   0.02642  -0.0072  0.0251  1.0000  -6.8656   0.0000   0.0000   0.0000   0.2325


