xflr5 v6.61

 Calculated polar for: NACA 2414

 1 1 Reynolds number fixed          Mach number fixed         

 xtrf =   1.000 (top)        1.000 (bottom)
 Mach =   0.000     Re =     2.000 e 6     Ncrit =   9.000

  alpha     CL        CD       CDp       Cm    Top Xtr Bot Xtr   Cpmin    Chinge    XCp    
 ------- -------- --------- --------- -------- ------- ------- -------- --------- ---------
 -10.000  -0.8553   0.01118   0.00620  -0.0579  0.9778  0.0263  -5.1089   0.0000   0.0000   0.0000   0.1695
  -9.800  -0.8350   0.01101   0.00602  -0.0575  0.9737  0.0266  -4.9419   0.0000   0.0000   0.0000   0.1685
  -9.600  -0.8137   0.01085   0.00585  -0.0573  0.9696  0.0268  -4.7853   0.0000   0.0000   0.0000   0.1672
  -9.400  -0.7919   0.01070   0.00569  -0.0572  0.9657  0.0270  -4.6365   0.0000   0.0000   0.0000   0.1655
  -9.200  -0.7721   0.01036   0.00532  -0.0567  0.9613  0.0297  -4.5090   0.0000   0.0000   0.0000   0.1645
  -9.000  -0.7522   0.01012   0.00509  -0.0563  0.9561  0.0316  -4.3747   0.0000   0.0000   0.0000   0.1633
  -8.800  -0.7318   0.00992   0.00488  -0.0559  0.9502  0.0330  -4.2376   0.0000   0.0000   0.0000   0.1620
  -8.600  -0.7109   0.00975   0.00469  -0.0555  0.9442  0.0342  -4.1008   0.0000   0.0000   0.0000   0.1603
  -8.400  -0.6896   0.00959   0.00453  -0.0553  0.9392  0.0352  -3.9640   0.0000   0.0000   0.0000   0.1584
  -8.200  -0.6681   0.00945   0.00438  -0.0551  0.9334  0.0359  -3.8280   0.0000   0.0000   0.0000   0.1563
  -8.000  -0.6465   0.00933   0.00423  -0.0549  0.9277  0.0362  -3.6930   0.0000   0.0000   0.0000   0.1539
  -7.800  -0.6249   0.00917   0.00405  -0.0547  0.9224  0.0378  -3.5625   0.0000   0.0000   0.0000   0.1514
  -7.600  -0.6034   0.00896   0.00385  -0.0545  0.9176  0.0412  -3.4345   0.0000   0.0000   0.0000   0.1487
  -7.400  -0.5819   0.00878   0.00368  -0.0544  0.9114  0.0436  -3.3062   0.0000   0.0000   0.0000   0.1457
  -7.200  -0.5603   0.00865   0.00354  -0.0542  0.9042  0.0455  -3.1793   0.0000   0.0000   0.0000   0.1426
  -7.000  -0.5382   0.00854   0.00340  -0.0541  0.8979  0.0467  -3.0529   0.0000   0.0000   0.0000   0.1389
  -6.800  -0.5159   0.00843   0.00327  -0.0540  0.8912  0.0478  -2.9273   0.0000   0.0000   0.0000   0.1347
  -6.600  -0.4943   0.00827   0.00311  -0.0538  0.8834  0.0524  -2.8068   0.0000   0.0000   0.0000   0.1306
  -6.400  -0.4725   0.00813   0.00297  -0.0537  0.8758  0.0561  -2.6866   0.0000   0.0000   0.0000   0.1259
  -6.200  -0.4501   0.00801   0.00286  -0.0537  0.8701  0.0586  -2.5657   0.0000   0.0000   0.0000   0.1203
  -6.000  -0.4278   0.00791   0.00274  -0.0536  0.8622  0.0616  -2.4478   0.0000   0.0000   0.0000   0.1143
  -5.800  -0.4062   0.00778   0.00260  -0.0534  0.8524  0.0671  -2.3431   0.0000   0.0000   0.0000   0.1081
  -5.600  -0.3837   0.00766   0.00250  -0.0534  0.8454  0.0708  -2.2438   0.0000   0.0000   0.0000   0.1004
  -5.400  -0.3613   0.00758   0.00240  -0.0533  0.8359  0.0735  -2.1462   0.0000   0.0000   0.0000   0.0918
  -5.200  -0.3396   0.00747   0.00227  -0.0531  0.8249  0.0805  -2.0521   0.0000   0.0000   0.0000   0.0829
  -5.000  -0.3170   0.00736   0.00218  -0.0532  0.8184  0.0854  -1.9566   0.0000   0.0000   0.0000   0.0715
  -4.800  -0.2946   0.00729   0.00209  -0.0531  0.8085  0.0903  -1.8630   0.0000   0.0000   0.0000   0.0587
  -4.600  -0.2728   0.00718   0.00199  -0.0530  0.7969  0.0985  -1.7721   0.0000   0.0000   0.0000   0.0447
  -4.400  -0.2501   0.00710   0.00191  -0.0530  0.7882  0.1048  -1.6807   0.0000   0.0000   0.0000   0.0267
  -4.200  -0.2282   0.00700   0.00182  -0.0528  0.7764  0.1147  -1.5924   0.0000   0.0000   0.0000   0.0066
  -4.000  -0.2056   0.00695   0.00175  -0.0528  0.7667  0.1203  -1.5040   0.0000   0.0000   0.0000  -0.0192
  -3.800  -0.1833   0.00684   0.00167  -0.0528  0.7567  0.1313  -1.4248   0.0000   0.0000   0.0000  -0.0509
  -3.400  -0.1387   0.00670   0.00153  -0.0527  0.7336  0.1507  -1.2794   0.0000   0.0000   0.0000  -0.1446
  -3.200  -0.1164   0.00665   0.00147  -0.0526  0.7215  0.1624  -1.2080   0.0000   0.0000   0.0000  -0.2183
  -3.000  -0.0941   0.00658   0.00142  -0.0526  0.7101  0.1746  -1.1379   0.0000   0.0000   0.0000  -0.3269
  -2.800  -0.0716   0.00651   0.00137  -0.0526  0.6993  0.1871  -1.0684   0.0000   0.0000   0.0000  -0.5061
  -2.600  -0.0495   0.00650   0.00132  -0.0525  0.6842  0.1970  -1.0034   0.0000   0.0000   0.0000  -0.8397
  -2.400  -0.0269   0.00640   0.00128  -0.0525  0.6753  0.2137  -0.9448   0.0000   0.0000   0.0000  -1.7498
  -2.200  -0.0046   0.00636   0.00124  -0.0524  0.6628  0.2295  -0.8873   0.0000   0.0000   0.0000  -11.3056
  -2.000   0.0179   0.00633   0.00121  -0.0524  0.6509  0.2418  -0.8302   0.0000   0.0000   0.0000   3.2395
  -1.800   0.0403   0.00627   0.00118  -0.0524  0.6394  0.2587  -0.7742   0.0000   0.0000   0.0000   1.5717
  -1.600   0.0624   0.00624   0.00115  -0.0523  0.6248  0.2763  -0.7255   0.0000   0.0000   0.0000   1.1001
  -1.400   0.0852   0.00619   0.00113  -0.0524  0.6165  0.2925  -0.6772   0.0000   0.0000   0.0000   0.8715
  -1.200   0.1074   0.00616   0.00112  -0.0523  0.6034  0.3108  -0.6302   0.0000   0.0000   0.0000   0.7413
  -1.000   0.1298   0.00612   0.00110  -0.0523  0.5920  0.3313  -0.5860   0.0000   0.0000   0.0000   0.6553
  -0.800   0.1523   0.00607   0.00109  -0.0523  0.5820  0.3525  -0.5687   0.0000   0.0000   0.0000   0.5945
  -0.600   0.1745   0.00607   0.00109  -0.0522  0.5679  0.3705  -0.5864   0.0000   0.0000   0.0000   0.5495
  -0.400   0.1970   0.00600   0.00108  -0.0523  0.5597  0.3963  -0.6050   0.0000   0.0000   0.0000   0.5146
  -0.200   0.2191   0.00594   0.00108  -0.0522  0.5489  0.4275  -0.6233   0.0000   0.0000   0.0000   0.4870
   0.000   0.2411   0.00590   0.00108  -0.0521  0.5363  0.4601  -0.6421   0.0000   0.0000   0.0000   0.4645
   0.200   0.2634   0.00580   0.00109  -0.0521  0.5291  0.4963  -0.6621   0.0000   0.0000   0.0000   0.4457
   0.400   0.2855   0.00577   0.00110  -0.0521  0.5187  0.5269  -0.6821   0.0000   0.0000   0.0000   0.4298
   0.600   0.3076   0.00575   0.00112  -0.0520  0.5071  0.5569  -0.7028   0.0000   0.0000   0.0000   0.4161
   0.800   0.3302   0.00569   0.00114  -0.0520  0.5007  0.5865  -0.7247   0.0000   0.0000   0.0000   0.4043
   1.000   0.3524   0.00568   0.00116  -0.0519  0.4914  0.6132  -0.7464   0.0000   0.0000   0.0000   0.3940
   1.200   0.3744   0.00568   0.00120  -0.0518  0.4794  0.6412  -0.7696   0.0000   0.0000   0.0000   0.3848
   1.400   0.3970   0.00564   0.00122  -0.0518  0.4741  0.6671  -0.7936   0.0000   0.0000   0.0000   0.3767
   1.600   0.4192   0.00563   0.00126  -0.0518  0.4663  0.6937  -0.8186   0.0000   0.0000   0.0000   0.3694
   1.800   0.4411   0.00565   0.00130  -0.0516  0.4557  0.7199  -0.8441   0.0000   0.0000   0.0000   0.3627
   2.000   0.4634   0.00563   0.00135  -0.0516  0.4482  0.7455  -0.8713   0.0000   0.0000   0.0000   0.3568
   2.200   0.4856   0.00561   0.00139  -0.0515  0.4418  0.7720  -0.8996   0.0000   0.0000   0.0000   0.3513
   2.400   0.5074   0.00564   0.00144  -0.0513  0.4323  0.7974  -0.9295   0.0000   0.0000   0.0000   0.3462
   2.600   0.5290   0.00566   0.00149  -0.0511  0.4219  0.8233  -0.9604   0.0000   0.0000   0.0000   0.3414
   2.800   0.5509   0.00564   0.00154  -0.0509  0.4163  0.8477  -0.9943   0.0000   0.0000   0.0000   0.3371
   3.000   0.5722   0.00568   0.00161  -0.0506  0.4067  0.8709  -1.0299   0.0000   0.0000   0.0000   0.3329
   3.200   0.5931   0.00574   0.00168  -0.0502  0.3943  0.8918  -1.0672   0.0000   0.0000   0.0000   0.3290
   3.400   0.6146   0.00577   0.00174  -0.0499  0.3874  0.9106  -1.1084   0.0000   0.0000   0.0000   0.3253
   3.600   0.6352   0.00588   0.00182  -0.0494  0.3747  0.9271  -1.1517   0.0000   0.0000   0.0000   0.3218
   3.800   0.6561   0.00596   0.00190  -0.0490  0.3642  0.9424  -1.1975   0.0000   0.0000   0.0000   0.3185
   4.000   0.6768   0.00607   0.00199  -0.0486  0.3526  0.9549  -1.2478   0.0000   0.0000   0.0000   0.3153
   4.200   0.6980   0.00620   0.00207  -0.0482  0.3394  0.9652  -1.3002   0.0000   0.0000   0.0000   0.3125
   4.400   0.7209   0.00634   0.00216  -0.0483  0.3269  0.9736  -1.3589   0.0000   0.0000   0.0000   0.3103
   4.600   0.7431   0.00649   0.00226  -0.0483  0.3135  0.9808  -1.4206   0.0000   0.0000   0.0000   0.3080
   4.800   0.7693   0.00667   0.00237  -0.0492  0.2983  0.9852  -1.4886   0.0000   0.0000   0.0000   0.3068
   5.000   0.7947   0.00684   0.00248  -0.0499  0.2844  0.9898  -1.5613   0.0000   0.0000   0.0000   0.3055
   5.200   0.8204   0.00707   0.00261  -0.0507  0.2680  0.9931  -1.6396   0.0000   0.0000   0.0000   0.3043
   5.400   0.8500   0.00728   0.00275  -0.0524  0.2522  0.9945  -1.7255   0.0000   0.0000   0.0000   0.3040
   5.600   0.8785   0.00750   0.00290  -0.0539  0.2354  0.9960  -1.8109   0.0000   0.0000   0.0000   0.3035
   5.800   0.9052   0.00775   0.00306  -0.0550  0.2187  0.9975  -1.9008   0.0000   0.0000   0.0000   0.3027
   6.000   0.9312   0.00797   0.00320  -0.0560  0.2053  0.9987  -1.9962   0.0000   0.0000   0.0000   0.3018
   6.200   0.9569   0.00822   0.00337  -0.0568  0.1888  0.9997  -2.0922   0.0000   0.0000   0.0000   0.3009
   6.400   0.9754   0.00848   0.00353  -0.0562  0.1733  1.0000  -2.1753   0.0000   0.0000   0.0000   0.2988
   6.600   0.9911   0.00871   0.00369  -0.0549  0.1607  1.0000  -2.2536   0.0000   0.0000   0.0000   0.2964
   6.800   1.0081   0.00889   0.00383  -0.0539  0.1511  1.0000  -2.3355   0.0000   0.0000   0.0000   0.2942
   7.000   1.0240   0.00915   0.00401  -0.0526  0.1384  1.0000  -2.4159   0.0000   0.0000   0.0000   0.2919
   7.200   1.0415   0.00933   0.00416  -0.0517  0.1308  1.0000  -2.5053   0.0000   0.0000   0.0000   0.2899
   7.400   1.0579   0.00960   0.00436  -0.0506  0.1193  1.0000  -2.6003   0.0000   0.0000   0.0000   0.2879
   7.600   1.0753   0.00982   0.00454  -0.0497  0.1110  1.0000  -2.6999   0.0000   0.0000   0.0000   0.2860
   7.800   1.0926   0.01009   0.00474  -0.0488  0.1008  1.0000  -2.8004   0.0000   0.0000   0.0000   0.2842
   8.000   1.1104   0.01035   0.00495  -0.0480  0.0930  1.0000  -2.9035   0.0000   0.0000   0.0000   0.2825
   8.200   1.1287   0.01059   0.00515  -0.0473  0.0858  1.0000  -3.0094   0.0000   0.0000   0.0000   0.2810
   8.400   1.1473   0.01082   0.00535  -0.0467  0.0806  1.0000  -3.1174   0.0000   0.0000   0.0000   0.2795
   8.600   1.1651   0.01111   0.00559  -0.0459  0.0730  1.0000  -3.2243   0.0000   0.0000   0.0000   0.2780
   8.800   1.1843   0.01131   0.00578  -0.0454  0.0699  1.0000  -3.3367   0.0000   0.0000   0.0000   0.2766
   9.000   1.2024   0.01158   0.00601  -0.0447  0.0653  1.0000  -3.4475   0.0000   0.0000   0.0000   0.2752
   9.200   1.2203   0.01187   0.00626  -0.0440  0.0593  1.0000  -3.5581   0.0000   0.0000   0.0000   0.2738
   9.400   1.2393   0.01207   0.00648  -0.0435  0.0574  1.0000  -3.6748   0.0000   0.0000   0.0000   0.2726
   9.600   1.2574   0.01233   0.00671  -0.0429  0.0543  1.0000  -3.7896   0.0000   0.0000   0.0000   0.2713
   9.800   1.2746   0.01265   0.00700  -0.0421  0.0499  1.0000  -3.9021   0.0000   0.0000   0.0000   0.2699
  10.000   1.2925   0.01291   0.00725  -0.0414  0.0467  1.0000  -4.0349   0.0000   0.0000   0.0000   0.2687
  10.200   1.3106   0.01315   0.00748  -0.0408  0.0450  1.0000  -4.1710   0.0000   0.0000   0.0000   0.2674
  10.400   1.3276   0.01345   0.00776  -0.0400  0.0425  1.0000  -4.3049   0.0000   0.0000   0.0000   0.2661
  10.600   1.3438   0.01378   0.00807  -0.0390  0.0396  1.0000  -4.4371   0.0000   0.0000   0.0000   0.2648
  10.800   1.3599   0.01411   0.00839  -0.0381  0.0364  1.0000  -4.5693   0.0000   0.0000   0.0000   0.2634
  11.000   1.3772   0.01434   0.00864  -0.0373  0.0359  1.0000  -4.7094   0.0000   0.0000   0.0000   0.2622
  11.200   1.3931   0.01460   0.00892  -0.0363  0.0351  1.0000  -4.8466   0.0000   0.0000   0.0000   0.2609
  11.400   1.4076   0.01489   0.00921  -0.0351  0.0340  1.0000  -4.9798   0.0000   0.0000   0.0000   0.2594
  11.600   1.4213   0.01523   0.00954  -0.0337  0.0326  1.0000  -5.1107   0.0000   0.0000   0.0000   0.2579
  11.800   1.4342   0.01562   0.00992  -0.0323  0.0309  1.0000  -5.2398   0.0000   0.0000   0.0000   0.2564
  12.000   1.4467   0.01604   0.01034  -0.0309  0.0288  1.0000  -5.3669   0.0000   0.0000   0.0000   0.2549
  12.200   1.4590   0.01649   0.01081  -0.0294  0.0269  1.0000  -5.4926   0.0000   0.0000   0.0000   0.2534
  12.400   1.4735   0.01681   0.01115  -0.0284  0.0268  1.0000  -5.6327   0.0000   0.0000   0.0000   0.2521
  12.600   1.4879   0.01716   0.01152  -0.0274  0.0265  1.0000  -5.7731   0.0000   0.0000   0.0000   0.2509
  12.800   1.5017   0.01754   0.01192  -0.0263  0.0261  1.0000  -5.9119   0.0000   0.0000   0.0000   0.2497
  13.000   1.5146   0.01796   0.01236  -0.0251  0.0256  1.0000  -6.0484   0.0000   0.0000   0.0000   0.2484
  13.200   1.5273   0.01842   0.01284  -0.0240  0.0249  1.0000  -6.1847   0.0000   0.0000   0.0000   0.2471
  13.400   1.5390   0.01894   0.01337  -0.0227  0.0242  1.0000  -6.3179   0.0000   0.0000   0.0000   0.2459
  13.600   1.5502   0.01951   0.01395  -0.0215  0.0234  1.0000  -6.4497   0.0000   0.0000   0.0000   0.2446
  13.800   1.5602   0.02014   0.01459  -0.0202  0.0226  1.0000  -6.5771   0.0000   0.0000   0.0000   0.2433
  14.000   1.5696   0.02084   0.01530  -0.0188  0.0215  1.0000  -6.7012   0.0000   0.0000   0.0000   0.2420
  14.200   1.5781   0.02163   0.01612  -0.0175  0.0203  1.0000  -6.8198   0.0000   0.0000   0.0000   0.2407
  14.400   1.5847   0.02257   0.01711  -0.0160  0.0191  1.0000  -6.9269   0.0000   0.0000   0.0000   0.2393
  14.600   1.5946   0.02332   0.01790  -0.0150  0.0188  1.0000  -7.0559   0.0000   0.0000   0.0000   0.2382
  14.800   1.6052   0.02401   0.01862  -0.0141  0.0187  1.0000  -7.1921   0.0000   0.0000   0.0000   0.2372
  15.000   1.6160   0.02471   0.01934  -0.0132  0.0186  1.0000  -7.3303   0.0000   0.0000   0.0000   0.2362


