xflr5 v6.61

 Calculated polar for: NACA 2414

 1 1 Reynolds number fixed          Mach number fixed         

 xtrf =   1.000 (top)        1.000 (bottom)
 Mach =   0.000     Re =     3.000 e 6     Ncrit =   9.000

  alpha     CL        CD       CDp       Cm    Top Xtr Bot Xtr   Cpmin    Chinge    XCp    
 ------- -------- --------- --------- -------- ------- ------- -------- --------- ---------
 -10.000  -0.8689   0.01006   0.00531  -0.0552  0.9599  0.0244  -5.1827   0.0000   0.0000   0.0000   0.1738
  -9.800  -0.8482   0.00987   0.00513  -0.0548  0.9550  0.0252  -5.0139   0.0000   0.0000   0.0000   0.1728
  -9.600  -0.8275   0.00970   0.00495  -0.0545  0.9492  0.0259  -4.8588   0.0000   0.0000   0.0000   0.1718
  -9.400  -0.8063   0.00956   0.00479  -0.0542  0.9434  0.0264  -4.7124   0.0000   0.0000   0.0000   0.1706
  -9.200  -0.7847   0.00943   0.00464  -0.0541  0.9381  0.0267  -4.5653   0.0000   0.0000   0.0000   0.1691
  -9.000  -0.7632   0.00931   0.00451  -0.0539  0.9314  0.0269  -4.4194   0.0000   0.0000   0.0000   0.1676
  -8.800  -0.7419   0.00917   0.00433  -0.0537  0.9241  0.0276  -4.2786   0.0000   0.0000   0.0000   0.1661
  -8.600  -0.7203   0.00897   0.00412  -0.0535  0.9202  0.0298  -4.1423   0.0000   0.0000   0.0000   0.1642
  -8.400  -0.6986   0.00878   0.00394  -0.0534  0.9151  0.0319  -4.0051   0.0000   0.0000   0.0000   0.1623
  -8.200  -0.6771   0.00861   0.00378  -0.0532  0.9088  0.0335  -3.8687   0.0000   0.0000   0.0000   0.1602
  -8.000  -0.6555   0.00848   0.00363  -0.0530  0.9011  0.0348  -3.7335   0.0000   0.0000   0.0000   0.1580
  -7.800  -0.6331   0.00836   0.00350  -0.0530  0.8965  0.0357  -3.5975   0.0000   0.0000   0.0000   0.1553
  -7.600  -0.6108   0.00826   0.00339  -0.0530  0.8895  0.0362  -3.4634   0.0000   0.0000   0.0000   0.1524
  -7.400  -0.5889   0.00817   0.00326  -0.0528  0.8806  0.0369  -3.3325   0.0000   0.0000   0.0000   0.1495
  -7.200  -0.5668   0.00802   0.00311  -0.0528  0.8740  0.0403  -3.2052   0.0000   0.0000   0.0000   0.1463
  -7.000  -0.5447   0.00786   0.00296  -0.0527  0.8679  0.0432  -3.0788   0.0000   0.0000   0.0000   0.1427
  -6.800  -0.5226   0.00775   0.00284  -0.0526  0.8598  0.0453  -2.9530   0.0000   0.0000   0.0000   0.1388
  -6.600  -0.5004   0.00766   0.00273  -0.0525  0.8507  0.0466  -2.8286   0.0000   0.0000   0.0000   0.1346
  -6.400  -0.4776   0.00758   0.00263  -0.0526  0.8447  0.0475  -2.7046   0.0000   0.0000   0.0000   0.1295
  -6.200  -0.4554   0.00746   0.00251  -0.0525  0.8351  0.0521  -2.5851   0.0000   0.0000   0.0000   0.1244
  -6.000  -0.4336   0.00735   0.00239  -0.0524  0.8240  0.0562  -2.4676   0.0000   0.0000   0.0000   0.1188
  -5.800  -0.4109   0.00725   0.00230  -0.0524  0.8169  0.0587  -2.3568   0.0000   0.0000   0.0000   0.1121
  -5.600  -0.3884   0.00718   0.00220  -0.0524  0.8071  0.0617  -2.2571   0.0000   0.0000   0.0000   0.1048
  -5.400  -0.3663   0.00708   0.00210  -0.0523  0.7965  0.0672  -2.1601   0.0000   0.0000   0.0000   0.0968
  -5.200  -0.3436   0.00698   0.00200  -0.0523  0.7884  0.0710  -2.0632   0.0000   0.0000   0.0000   0.0873
  -5.000  -0.3212   0.00694   0.00193  -0.0522  0.7757  0.0734  -1.9676   0.0000   0.0000   0.0000   0.0767
  -4.800  -0.2988   0.00684   0.00184  -0.0522  0.7660  0.0806  -1.8740   0.0000   0.0000   0.0000   0.0644
  -4.600  -0.2762   0.00676   0.00176  -0.0522  0.7564  0.0854  -1.7810   0.0000   0.0000   0.0000   0.0499
  -4.400  -0.2538   0.00673   0.00169  -0.0522  0.7427  0.0898  -1.6898   0.0000   0.0000   0.0000   0.0331
  -4.200  -0.2313   0.00661   0.00161  -0.0522  0.7345  0.0991  -1.6001   0.0000   0.0000   0.0000   0.0127
  -4.000  -0.2088   0.00658   0.00155  -0.0522  0.7217  0.1048  -1.5116   0.0000   0.0000   0.0000  -0.0119
  -3.800  -0.1864   0.00649   0.00148  -0.0521  0.7100  0.1144  -1.4310   0.0000   0.0000   0.0000  -0.0423
  -3.600  -0.1635   0.00644   0.00143  -0.0522  0.7004  0.1195  -1.3565   0.0000   0.0000   0.0000  -0.0824
  -3.400  -0.1413   0.00639   0.00136  -0.0521  0.6856  0.1304  -1.2845   0.0000   0.0000   0.0000  -0.1330
  -3.200  -0.1184   0.00634   0.00131  -0.0522  0.6766  0.1370  -1.2120   0.0000   0.0000   0.0000  -0.2063
  -3.000  -0.0962   0.00628   0.00126  -0.0521  0.6636  0.1503  -1.1417   0.0000   0.0000   0.0000  -0.3100
  -2.800  -0.0735   0.00624   0.00122  -0.0521  0.6518  0.1606  -1.0718   0.0000   0.0000   0.0000  -0.4812
  -2.600  -0.0509   0.00617   0.00117  -0.0522  0.6419  0.1729  -1.0056   0.0000   0.0000   0.0000  -0.8040
  -2.400  -0.0284   0.00616   0.00114  -0.0521  0.6261  0.1828  -0.9470   0.0000   0.0000   0.0000  -1.6302
  -2.200  -0.0056   0.00610   0.00111  -0.0522  0.6179  0.1951  -0.8887   0.0000   0.0000   0.0000  -9.2617
  -2.000   0.0168   0.00605   0.00108  -0.0522  0.6059  0.2111  -0.8318   0.0000   0.0000   0.0000   3.4144
  -1.800   0.0395   0.00603   0.00105  -0.0522  0.5935  0.2229  -0.7753   0.0000   0.0000   0.0000   1.5928
  -1.600   0.0622   0.00598   0.00103  -0.0523  0.5840  0.2379  -0.7257   0.0000   0.0000   0.0000   1.1013
  -1.400   0.0846   0.00597   0.00101  -0.0522  0.5697  0.2526  -0.6778   0.0000   0.0000   0.0000   0.8741
  -1.200   0.1075   0.00593   0.00099  -0.0523  0.5616  0.2677  -0.6300   0.0000   0.0000   0.0000   0.7405
  -1.000   0.1301   0.00589   0.00098  -0.0523  0.5514  0.2856  -0.5855   0.0000   0.0000   0.0000   0.6545
  -0.800   0.1525   0.00589   0.00098  -0.0523  0.5368  0.3016  -0.5688   0.0000   0.0000   0.0000   0.5940
  -0.600   0.1755   0.00584   0.00097  -0.0524  0.5308  0.3196  -0.5869   0.0000   0.0000   0.0000   0.5486
  -0.400   0.1980   0.00581   0.00096  -0.0524  0.5209  0.3386  -0.6055   0.0000   0.0000   0.0000   0.5140
  -0.200   0.2204   0.00580   0.00097  -0.0524  0.5076  0.3592  -0.6239   0.0000   0.0000   0.0000   0.4865
   0.000   0.2433   0.00574   0.00096  -0.0525  0.5022  0.3827  -0.6433   0.0000   0.0000   0.0000   0.4640
   0.200   0.2658   0.00571   0.00097  -0.0525  0.4934  0.4051  -0.6634   0.0000   0.0000   0.0000   0.4453
   0.400   0.2880   0.00568   0.00098  -0.0525  0.4808  0.4366  -0.6834   0.0000   0.0000   0.0000   0.4296
   0.600   0.3106   0.00560   0.00099  -0.0525  0.4754  0.4708  -0.7045   0.0000   0.0000   0.0000   0.4162
   0.800   0.3332   0.00555   0.00100  -0.0525  0.4683  0.4998  -0.7264   0.0000   0.0000   0.0000   0.4045
   1.000   0.3554   0.00553   0.00102  -0.0525  0.4581  0.5304  -0.7481   0.0000   0.0000   0.0000   0.3943
   1.200   0.3779   0.00550   0.00105  -0.0525  0.4494  0.5575  -0.7718   0.0000   0.0000   0.0000   0.3853
   1.400   0.4007   0.00546   0.00107  -0.0526  0.4443  0.5843  -0.7959   0.0000   0.0000   0.0000   0.3773
   1.600   0.4231   0.00546   0.00110  -0.0526  0.4361  0.6109  -0.8211   0.0000   0.0000   0.0000   0.3701
   1.800   0.4454   0.00548   0.00114  -0.0525  0.4247  0.6343  -0.8469   0.0000   0.0000   0.0000   0.3636
   2.000   0.4682   0.00545   0.00117  -0.0526  0.4196  0.6599  -0.8746   0.0000   0.0000   0.0000   0.3578
   2.200   0.4907   0.00544   0.00121  -0.0526  0.4125  0.6836  -0.9032   0.0000   0.0000   0.0000   0.3524
   2.400   0.5126   0.00548   0.00126  -0.0525  0.4005  0.7102  -0.9334   0.0000   0.0000   0.0000   0.3475
   2.600   0.5350   0.00547   0.00130  -0.0524  0.3924  0.7367  -0.9653   0.0000   0.0000   0.0000   0.3429
   2.800   0.5572   0.00548   0.00135  -0.0524  0.3836  0.7619  -0.9993   0.0000   0.0000   0.0000   0.3387
   3.000   0.5787   0.00554   0.00141  -0.0522  0.3689  0.7873  -1.0355   0.0000   0.0000   0.0000   0.3347
   3.200   0.6009   0.00554   0.00146  -0.0521  0.3617  0.8114  -1.0745   0.0000   0.0000   0.0000   0.3311
   3.400   0.6222   0.00562   0.00154  -0.0518  0.3482  0.8353  -1.1156   0.0000   0.0000   0.0000   0.3275
   3.600   0.6439   0.00566   0.00161  -0.0517  0.3374  0.8578  -1.1609   0.0000   0.0000   0.0000   0.3242
   3.800   0.6651   0.00574   0.00170  -0.0514  0.3250  0.8792  -1.2070   0.0000   0.0000   0.0000   0.3211
   4.000   0.6862   0.00582   0.00178  -0.0511  0.3120  0.8996  -1.2588   0.0000   0.0000   0.0000   0.3181
   4.200   0.7067   0.00592   0.00187  -0.0506  0.2998  0.9184  -1.3106   0.0000   0.0000   0.0000   0.3151
   4.400   0.7273   0.00602   0.00196  -0.0502  0.2869  0.9343  -1.3674   0.0000   0.0000   0.0000   0.3123
   4.600   0.7473   0.00619   0.00207  -0.0497  0.2706  0.9476  -1.4262   0.0000   0.0000   0.0000   0.3095
   4.800   0.7679   0.00629   0.00216  -0.0492  0.2610  0.9604  -1.4865   0.0000   0.0000   0.0000   0.3070
   5.000   0.7884   0.00648   0.00228  -0.0488  0.2451  0.9698  -1.5513   0.0000   0.0000   0.0000   0.3046
   5.200   0.8093   0.00664   0.00239  -0.0485  0.2321  0.9789  -1.6219   0.0000   0.0000   0.0000   0.3024
   5.400   0.8333   0.00684   0.00251  -0.0489  0.2166  0.9845  -1.6982   0.0000   0.0000   0.0000   0.3010
   5.600   0.8569   0.00705   0.00266  -0.0493  0.2029  0.9901  -1.7750   0.0000   0.0000   0.0000   0.2996
   5.800   0.8822   0.00722   0.00278  -0.0500  0.1911  0.9936  -1.8576   0.0000   0.0000   0.0000   0.2986
   6.000   0.9098   0.00749   0.00295  -0.0513  0.1735  0.9951  -1.9553   0.0000   0.0000   0.0000   0.2981
   6.200   0.9362   0.00777   0.00313  -0.0524  0.1560  0.9964  -2.0518   0.0000   0.0000   0.0000   0.2974
   6.400   0.9618   0.00799   0.00328  -0.0532  0.1457  0.9976  -2.1487   0.0000   0.0000   0.0000   0.2966
   6.600   0.9869   0.00820   0.00343  -0.0540  0.1345  0.9987  -2.2461   0.0000   0.0000   0.0000   0.2957
   6.800   1.0115   0.00847   0.00362  -0.0546  0.1221  0.9996  -2.3436   0.0000   0.0000   0.0000   0.2948
   7.000   1.0334   0.00864   0.00376  -0.0546  0.1148  1.0000  -2.4369   0.0000   0.0000   0.0000   0.2934
   7.200   1.0489   0.00889   0.00393  -0.0533  0.1032  1.0000  -2.5250   0.0000   0.0000   0.0000   0.2912
   7.400   1.0659   0.00909   0.00410  -0.0523  0.0961  1.0000  -2.6220   0.0000   0.0000   0.0000   0.2891
   7.600   1.0826   0.00932   0.00427  -0.0512  0.0869  1.0000  -2.7201   0.0000   0.0000   0.0000   0.2872
   7.800   1.1008   0.00949   0.00442  -0.0504  0.0830  1.0000  -2.8236   0.0000   0.0000   0.0000   0.2854
   8.000   1.1182   0.00974   0.00461  -0.0495  0.0762  1.0000  -2.9263   0.0000   0.0000   0.0000   0.2836
   8.200   1.1371   0.00992   0.00477  -0.0489  0.0714  1.0000  -3.0343   0.0000   0.0000   0.0000   0.2821
   8.400   1.1560   0.01012   0.00495  -0.0483  0.0675  1.0000  -3.1438   0.0000   0.0000   0.0000   0.2806
   8.600   1.1743   0.01037   0.00515  -0.0476  0.0617  1.0000  -3.2526   0.0000   0.0000   0.0000   0.2791
   8.800   1.1938   0.01056   0.00532  -0.0472  0.0584  1.0000  -3.3663   0.0000   0.0000   0.0000   0.2778
   9.000   1.2131   0.01076   0.00551  -0.0467  0.0557  1.0000  -3.4809   0.0000   0.0000   0.0000   0.2765
   9.200   1.2315   0.01102   0.00574  -0.0460  0.0519  1.0000  -3.5946   0.0000   0.0000   0.0000   0.2751
   9.400   1.2501   0.01127   0.00596  -0.0455  0.0471  1.0000  -3.7098   0.0000   0.0000   0.0000   0.2738
   9.600   1.2695   0.01146   0.00614  -0.0450  0.0457  1.0000  -3.8291   0.0000   0.0000   0.0000   0.2726
   9.800   1.2879   0.01171   0.00637  -0.0444  0.0431  1.0000  -3.9523   0.0000   0.0000   0.0000   0.2714
  10.000   1.3058   0.01199   0.00662  -0.0437  0.0401  1.0000  -4.0861   0.0000   0.0000   0.0000   0.2701
  10.200   1.3239   0.01225   0.00686  -0.0431  0.0367  1.0000  -4.2224   0.0000   0.0000   0.0000   0.2689
  10.400   1.3428   0.01245   0.00707  -0.0426  0.0360  1.0000  -4.3639   0.0000   0.0000   0.0000   0.2677
  10.600   1.3613   0.01267   0.00728  -0.0420  0.0352  1.0000  -4.5060   0.0000   0.0000   0.0000   0.2666
  10.800   1.3791   0.01292   0.00753  -0.0413  0.0338  1.0000  -4.6472   0.0000   0.0000   0.0000   0.2654
  11.000   1.3961   0.01321   0.00781  -0.0405  0.0321  1.0000  -4.7868   0.0000   0.0000   0.0000   0.2642
  11.200   1.4124   0.01353   0.00811  -0.0396  0.0300  1.0000  -4.9259   0.0000   0.0000   0.0000   0.2629
  11.400   1.4285   0.01383   0.00841  -0.0387  0.0277  1.0000  -5.0644   0.0000   0.0000   0.0000   0.2616
  11.600   1.4449   0.01409   0.00867  -0.0378  0.0269  1.0000  -5.2062   0.0000   0.0000   0.0000   0.2603
  11.800   1.4606   0.01432   0.00892  -0.0367  0.0266  1.0000  -5.3482   0.0000   0.0000   0.0000   0.2590
  12.000   1.4755   0.01458   0.00919  -0.0356  0.0263  1.0000  -5.4886   0.0000   0.0000   0.0000   0.2576
  12.200   1.4901   0.01486   0.00948  -0.0344  0.0257  1.0000  -5.6290   0.0000   0.0000   0.0000   0.2563
  12.400   1.5042   0.01519   0.00980  -0.0332  0.0249  1.0000  -5.7686   0.0000   0.0000   0.0000   0.2549
  12.600   1.5175   0.01555   0.01017  -0.0318  0.0240  1.0000  -5.9056   0.0000   0.0000   0.0000   0.2535
  12.800   1.5302   0.01596   0.01057  -0.0305  0.0230  1.0000  -6.0417   0.0000   0.0000   0.0000   0.2521
  13.000   1.5424   0.01640   0.01101  -0.0291  0.0218  1.0000  -6.1757   0.0000   0.0000   0.0000   0.2507
  13.200   1.5547   0.01686   0.01148  -0.0278  0.0204  1.0000  -6.3095   0.0000   0.0000   0.0000   0.2493
  13.400   1.5659   0.01735   0.01200  -0.0263  0.0193  1.0000  -6.4393   0.0000   0.0000   0.0000   0.2479
  13.600   1.5785   0.01780   0.01247  -0.0251  0.0188  1.0000  -6.5778   0.0000   0.0000   0.0000   0.2466
  13.800   1.5921   0.01820   0.01289  -0.0241  0.0188  1.0000  -6.7246   0.0000   0.0000   0.0000   0.2455
  14.000   1.6051   0.01864   0.01334  -0.0231  0.0187  1.0000  -6.8704   0.0000   0.0000   0.0000   0.2444
  14.200   1.6181   0.01909   0.01381  -0.0221  0.0185  1.0000  -7.0171   0.0000   0.0000   0.0000   0.2433
  14.400   1.6303   0.01958   0.01432  -0.0210  0.0183  1.0000  -7.1608   0.0000   0.0000   0.0000   0.2421
  14.600   1.6417   0.02013   0.01489  -0.0199  0.0180  1.0000  -7.3020   0.0000   0.0000   0.0000   0.2410
  14.800   1.6530   0.02072   0.01550  -0.0189  0.0177  1.0000  -7.4434   0.0000   0.0000   0.0000   0.2399
  15.000   1.6629   0.02141   0.01620  -0.0177  0.0172  1.0000  -7.5787   0.0000   0.0000   0.0000   0.2387


