xflr5 v6.61

 Calculated polar for: E209  (13.72%)

 1 1 Reynolds number fixed          Mach number fixed         

 xtrf =   1.000 (top)        1.000 (bottom)
 Mach =   0.000     Re =     2.000 e 6     Ncrit =   9.000

  alpha     CL        CD       CDp       Cm    Top Xtr Bot Xtr   Cpmin    Chinge    XCp    
 ------- -------- --------- --------- -------- ------- ------- -------- --------- ---------
  -8.000  -0.5808   0.01373   0.00950  -0.0620  0.9051  0.0041  -4.6356   0.0000   0.0000   0.0000   0.1336
  -7.400  -0.5495   0.00995   0.00477  -0.0558  0.8198  0.0039  -4.2820   0.0000   0.0000   0.0000   0.1395
  -7.200  -0.5304   0.00961   0.00429  -0.0552  0.8032  0.0039  -4.0792   0.0000   0.0000   0.0000   0.1371
  -6.800  -0.4914   0.00914   0.00353  -0.0540  0.7633  0.0051  -3.6771   0.0000   0.0000   0.0000   0.1314
  -6.600  -0.4708   0.00906   0.00337  -0.0537  0.7438  0.0063  -3.4646   0.0000   0.0000   0.0000   0.1274
  -6.400  -0.4498   0.00898   0.00325  -0.0535  0.7253  0.0074  -3.2953   0.0000   0.0000   0.0000   0.1226
  -6.200  -0.4284   0.00886   0.00311  -0.0533  0.7164  0.0084  -3.1306   0.0000   0.0000   0.0000   0.1170
  -6.000  -0.4072   0.00876   0.00298  -0.0532  0.7037  0.0092  -2.9727   0.0000   0.0000   0.0000   0.1110
  -5.800  -0.3862   0.00868   0.00285  -0.0530  0.6870  0.0098  -2.8210   0.0000   0.0000   0.0000   0.1045
  -5.600  -0.3640   0.00864   0.00271  -0.0530  0.6775  0.0081  -2.6848   0.0000   0.0000   0.0000   0.0961
  -5.400  -0.3421   0.00853   0.00260  -0.0529  0.6715  0.0089  -2.5342   0.0000   0.0000   0.0000   0.0870
  -5.200  -0.3205   0.00844   0.00248  -0.0528  0.6628  0.0096  -2.3881   0.0000   0.0000   0.0000   0.0767
  -5.000  -0.2990   0.00836   0.00237  -0.0527  0.6522  0.0104  -2.2463   0.0000   0.0000   0.0000   0.0652
  -4.800  -0.2774   0.00830   0.00227  -0.0526  0.6387  0.0112  -2.1077   0.0000   0.0000   0.0000   0.0518
  -4.600  -0.2554   0.00821   0.00217  -0.0526  0.6298  0.0121  -1.9713   0.0000   0.0000   0.0000   0.0355
  -4.400  -0.2332   0.00812   0.00208  -0.0526  0.6266  0.0131  -1.8376   0.0000   0.0000   0.0000   0.0155
  -4.200  -0.2119   0.00792   0.00194  -0.0525  0.6212  0.0256  -1.7101   0.0000   0.0000   0.0000  -0.0069
  -4.000  -0.1900   0.00784   0.00185  -0.0524  0.6135  0.0300  -1.5839   0.0000   0.0000   0.0000  -0.0355
  -3.800  -0.1689   0.00770   0.00174  -0.0523  0.6044  0.0436  -1.4634   0.0000   0.0000   0.0000  -0.0696
  -3.600  -0.1472   0.00761   0.00165  -0.0522  0.5940  0.0542  -1.3440   0.0000   0.0000   0.0000  -0.1153
  -3.400  -0.1259   0.00745   0.00154  -0.0521  0.5839  0.0708  -1.2286   0.0000   0.0000   0.0000  -0.1755
  -3.200  -0.1044   0.00724   0.00144  -0.0520  0.5799  0.0971  -1.1159   0.0000   0.0000   0.0000  -0.2613
  -3.000  -0.0829   0.00700   0.00133  -0.0520  0.5786  0.1299  -1.0058   0.0000   0.0000   0.0000  -0.3917
  -2.800  -0.0619   0.00671   0.00123  -0.0519  0.5765  0.1801  -0.8991   0.0000   0.0000   0.0000  -0.6066
  -2.600  -0.0470   0.00565   0.00100  -0.0512  0.5737  0.3916  -0.8095   0.0000   0.0000   0.0000  -0.8601
  -2.400  -0.0236   0.00569   0.00094  -0.0513  0.5696  0.3816  -0.6957   0.0000   0.0000   0.0000  -1.9584
  -2.200  -0.0012   0.00566   0.00091  -0.0513  0.5646  0.3939  -0.6407   0.0000   0.0000   0.0000  -43.5487
  -2.000   0.0208   0.00559   0.00089  -0.0513  0.5589  0.4207  -0.5903   0.0000   0.0000   0.0000   2.7538
  -1.800   0.0428   0.00556   0.00088  -0.0513  0.5519  0.4375  -0.5459   0.0000   0.0000   0.0000   1.4606
  -1.600   0.0654   0.00559   0.00087  -0.0514  0.5425  0.4422  -0.5400   0.0000   0.0000   0.0000   1.0422
  -1.400   0.0881   0.00562   0.00086  -0.0514  0.5334  0.4441  -0.5552   0.0000   0.0000   0.0000   0.8378
  -1.200   0.1111   0.00562   0.00085  -0.0516  0.5299  0.4468  -0.5708   0.0000   0.0000   0.0000   0.7162
  -1.000   0.1340   0.00558   0.00084  -0.0517  0.5290  0.4613  -0.5864   0.0000   0.0000   0.0000   0.6367
  -0.800   0.1566   0.00552   0.00084  -0.0518  0.5278  0.4765  -0.6019   0.0000   0.0000   0.0000   0.5807
  -0.600   0.1794   0.00549   0.00085  -0.0519  0.5260  0.4856  -0.6176   0.0000   0.0000   0.0000   0.5386
  -0.400   0.2023   0.00548   0.00085  -0.0520  0.5235  0.4911  -0.6333   0.0000   0.0000   0.0000   0.5060
  -0.200   0.2253   0.00549   0.00085  -0.0521  0.5201  0.4947  -0.6509   0.0000   0.0000   0.0000   0.4800
   0.000   0.2481   0.00552   0.00085  -0.0522  0.5158  0.4966  -0.6687   0.0000   0.0000   0.0000   0.4588
   0.200   0.2708   0.00555   0.00086  -0.0523  0.5107  0.4991  -0.6863   0.0000   0.0000   0.0000   0.4412
   0.400   0.2932   0.00557   0.00086  -0.0524  0.5048  0.5099  -0.7039   0.0000   0.0000   0.0000   0.4263
   0.600   0.3155   0.00559   0.00088  -0.0524  0.4975  0.5217  -0.7214   0.0000   0.0000   0.0000   0.4136
   0.800   0.3377   0.00559   0.00090  -0.0524  0.4894  0.5317  -0.7389   0.0000   0.0000   0.0000   0.4025
   1.000   0.3600   0.00561   0.00094  -0.0525  0.4820  0.5403  -0.7564   0.0000   0.0000   0.0000   0.3928
   1.200   0.3829   0.00561   0.00096  -0.0526  0.4801  0.5461  -0.7745   0.0000   0.0000   0.0000   0.3842
   1.400   0.4060   0.00561   0.00097  -0.0528  0.4792  0.5495  -0.7928   0.0000   0.0000   0.0000   0.3766
   1.600   0.4290   0.00561   0.00098  -0.0529  0.4778  0.5578  -0.8110   0.0000   0.0000   0.0000   0.3698
   1.800   0.4516   0.00558   0.00101  -0.0530  0.4755  0.5741  -0.8291   0.0000   0.0000   0.0000   0.3637
   2.000   0.4740   0.00557   0.00104  -0.0531  0.4710  0.5859  -0.8472   0.0000   0.0000   0.0000   0.3581
   2.200   0.4962   0.00560   0.00106  -0.0531  0.4644  0.5955  -0.8657   0.0000   0.0000   0.0000   0.3530
   2.400   0.5184   0.00566   0.00109  -0.0531  0.4569  0.6020  -0.8860   0.0000   0.0000   0.0000   0.3483
   2.600   0.5404   0.00572   0.00113  -0.0531  0.4476  0.6145  -0.9065   0.0000   0.0000   0.0000   0.3439
   2.800   0.5622   0.00574   0.00118  -0.0530  0.4365  0.6322  -0.9313   0.0000   0.0000   0.0000   0.3399
   3.000   0.5844   0.00575   0.00123  -0.0531  0.4315  0.6452  -0.9578   0.0000   0.0000   0.0000   0.3362
   3.200   0.6072   0.00575   0.00126  -0.0532  0.4304  0.6540  -0.9878   0.0000   0.0000   0.0000   0.3328
   3.400   0.6297   0.00575   0.00131  -0.0533  0.4281  0.6714  -1.0189   0.0000   0.0000   0.0000   0.3297
   3.600   0.6517   0.00573   0.00136  -0.0533  0.4246  0.6910  -1.0543   0.0000   0.0000   0.0000   0.3266
   3.800   0.6737   0.00577   0.00141  -0.0533  0.4176  0.7043  -1.0909   0.0000   0.0000   0.0000   0.3238
   4.000   0.6948   0.00584   0.00148  -0.0531  0.4073  0.7263  -1.1333   0.0000   0.0000   0.0000   0.3210
   4.200   0.7159   0.00590   0.00155  -0.0529  0.3954  0.7476  -1.1759   0.0000   0.0000   0.0000   0.3183
   4.400   0.7268   0.00681   0.00195  -0.0512  0.2741  0.7677  -1.2098   0.0000   0.0000   0.0000   0.3146
   4.600   0.7376   0.00771   0.00241  -0.0494  0.1725  0.7942  -1.2474   0.0000   0.0000   0.0000   0.3110
   4.800   0.7523   0.00825   0.00276  -0.0482  0.1221  0.8231  -1.2910   0.0000   0.0000   0.0000   0.3079
   5.000   0.7682   0.00865   0.00305  -0.0472  0.0837  0.8542  -1.3456   0.0000   0.0000   0.0000   0.3050
   5.200   0.7840   0.00892   0.00331  -0.0460  0.0597  0.8945  -1.4035   0.0000   0.0000   0.0000   0.3021
   5.400   0.7987   0.00920   0.00358  -0.0445  0.0362  0.9456  -1.4611   0.0000   0.0000   0.0000   0.2989
   5.600   0.8223   0.00948   0.00380  -0.0450  0.0251  0.9746  -1.5357   0.0000   0.0000   0.0000   0.2977
   5.800   0.8505   0.00968   0.00397  -0.0465  0.0192  0.9876  -1.6383   0.0000   0.0000   0.0000   0.2975
   6.000   0.8784   0.01004   0.00426  -0.0480  0.0089  0.9955  -1.7848   0.0000   0.0000   0.0000   0.2973
   6.200   0.9020   0.01022   0.00442  -0.0485  0.0082  1.0000  -1.9238   0.0000   0.0000   0.0000   0.2962
   6.400   0.9209   0.01038   0.00456  -0.0480  0.0076  1.0000  -2.0520   0.0000   0.0000   0.0000   0.2943
   6.600   0.9398   0.01056   0.00473  -0.0475  0.0070  1.0000  -2.1832   0.0000   0.0000   0.0000   0.2925
   6.800   0.9588   0.01074   0.00490  -0.0470  0.0065  1.0000  -2.3177   0.0000   0.0000   0.0000   0.2907
   7.000   0.9779   0.01093   0.00507  -0.0465  0.0060  1.0000  -2.4555   0.0000   0.0000   0.0000   0.2891
   7.200   0.9969   0.01112   0.00524  -0.0460  0.0055  1.0000  -2.5966   0.0000   0.0000   0.0000   0.2875
   7.400   1.0160   0.01131   0.00542  -0.0456  0.0051  1.0000  -2.7412   0.0000   0.0000   0.0000   0.2859
   7.600   1.0351   0.01150   0.00560  -0.0451  0.0045  1.0000  -2.8896   0.0000   0.0000   0.0000   0.2844
   7.800   1.0551   0.01162   0.00581  -0.0448  0.0064  1.0000  -3.0215   0.0000   0.0000   0.0000   0.2831
   8.000   1.0737   0.01184   0.00602  -0.0443  0.0060  1.0000  -3.1710   0.0000   0.0000   0.0000   0.2816
   8.200   1.0921   0.01207   0.00624  -0.0438  0.0054  1.0000  -3.3248   0.0000   0.0000   0.0000   0.2802
   8.400   1.1105   0.01229   0.00645  -0.0433  0.0048  1.0000  -3.4833   0.0000   0.0000   0.0000   0.2788
   8.600   1.1290   0.01251   0.00665  -0.0427  0.0040  1.0000  -3.6477   0.0000   0.0000   0.0000   0.2774
   8.800   1.1474   0.01272   0.00686  -0.0422  0.0032  1.0000  -3.8559   0.0000   0.0000   0.0000   0.2761
   9.000   1.1655   0.01296   0.00711  -0.0416  0.0023  1.0000  -4.0661   0.0000   0.0000   0.0000   0.2747
   9.200   1.1827   0.01324   0.00742  -0.0408  0.0021  1.0000  -4.2772   0.0000   0.0000   0.0000   0.2733
   9.400   1.1995   0.01353   0.00775  -0.0400  0.0021  1.0000  -4.4952   0.0000   0.0000   0.0000   0.2718
   9.600   1.2155   0.01386   0.00813  -0.0391  0.0021  1.0000  -4.7084   0.0000   0.0000   0.0000   0.2703
   9.800   1.2304   0.01424   0.00857  -0.0379  0.0021  1.0000  -4.9134   0.0000   0.0000   0.0000   0.2687
  10.000   1.2437   0.01469   0.00910  -0.0365  0.0021  1.0000  -5.1056   0.0000   0.0000   0.0000   0.2670
  10.200   1.2538   0.01522   0.00973  -0.0346  0.0021  1.0000  -5.2741   0.0000   0.0000   0.0000   0.2649
  10.400   1.2590   0.01587   0.01048  -0.0317  0.0021  1.0000  -5.4065   0.0000   0.0000   0.0000   0.2622
  10.600   1.2598   0.01672   0.01147  -0.0283  0.0021  1.0000  -5.5011   0.0000   0.0000   0.0000   0.2592
  10.800   1.2358   0.01883   0.01389  -0.0214  0.0022  1.0000  -5.5063   0.0000   0.0000   0.0000   0.2538
  11.000   1.2479   0.01926   0.01434  -0.0202  0.0023  1.0000  -5.7150   0.0000   0.0000   0.0000   0.2523
  11.200   1.2594   0.01972   0.01481  -0.0190  0.0025  1.0000  -5.9236   0.0000   0.0000   0.0000   0.2509
  11.400   1.2710   0.02020   0.01531  -0.0178  0.0027  1.0000  -6.1349   0.0000   0.0000   0.0000   0.2495
  11.600   1.2814   0.02077   0.01590  -0.0166  0.0029  1.0000  -6.3392   0.0000   0.0000   0.0000   0.2481
  11.800   1.2905   0.02142   0.01661  -0.0153  0.0033  1.0000  -6.5483   0.0000   0.0000   0.0000   0.2467
  12.000   1.2913   0.02262   0.01790  -0.0134  0.0038  1.0000  -6.6666   0.0000   0.0000   0.0000   0.2448


