xflr5 v6.61

 Calculated polar for: E209  (13.72%)

 1 1 Reynolds number fixed          Mach number fixed         

 xtrf =   1.000 (top)        1.000 (bottom)
 Mach =   0.000     Re =     3.000 e 6     Ncrit =   9.000

  alpha     CL        CD       CDp       Cm    Top Xtr Bot Xtr   Cpmin    Chinge    XCp    
 ------- -------- --------- --------- -------- ------- ------- -------- --------- ---------
  -8.400  -0.6473   0.01134   0.00695  -0.0581  0.8494  0.0037  -5.4362   0.0000   0.0000   0.0000   0.1505
  -8.000  -0.6189   0.00969   0.00484  -0.0553  0.8058  0.0037  -5.1484   0.0000   0.0000   0.0000   0.1514
  -7.800  -0.6006   0.00939   0.00438  -0.0545  0.7828  0.0038  -4.9280   0.0000   0.0000   0.0000   0.1500
  -7.600  -0.5806   0.00914   0.00403  -0.0541  0.7662  0.0038  -4.6909   0.0000   0.0000   0.0000   0.1478
  -7.400  -0.5605   0.00898   0.00377  -0.0537  0.7474  0.0038  -4.4509   0.0000   0.0000   0.0000   0.1453
  -7.200  -0.5400   0.00884   0.00354  -0.0534  0.7259  0.0039  -4.2093   0.0000   0.0000   0.0000   0.1424
  -7.000  -0.5188   0.00870   0.00334  -0.0532  0.7161  0.0039  -3.9664   0.0000   0.0000   0.0000   0.1388
  -6.800  -0.4978   0.00859   0.00317  -0.0530  0.7019  0.0039  -3.7286   0.0000   0.0000   0.0000   0.1350
  -6.600  -0.4766   0.00850   0.00301  -0.0528  0.6841  0.0043  -3.4977   0.0000   0.0000   0.0000   0.1307
  -6.400  -0.4547   0.00839   0.00288  -0.0527  0.6770  0.0051  -3.3086   0.0000   0.0000   0.0000   0.1256
  -6.200  -0.4327   0.00829   0.00277  -0.0527  0.6707  0.0060  -3.1434   0.0000   0.0000   0.0000   0.1198
  -6.000  -0.4110   0.00821   0.00266  -0.0526  0.6613  0.0067  -2.9843   0.0000   0.0000   0.0000   0.1136
  -5.800  -0.3894   0.00815   0.00255  -0.0525  0.6497  0.0073  -2.8308   0.0000   0.0000   0.0000   0.1068
  -5.600  -0.3676   0.00808   0.00240  -0.0525  0.6356  0.0058  -2.6920   0.0000   0.0000   0.0000   0.0989
  -5.400  -0.3454   0.00799   0.00231  -0.0525  0.6294  0.0065  -2.5409   0.0000   0.0000   0.0000   0.0897
  -5.200  -0.3231   0.00790   0.00222  -0.0525  0.6263  0.0071  -2.3933   0.0000   0.0000   0.0000   0.0791
  -5.000  -0.3009   0.00782   0.00213  -0.0525  0.6210  0.0078  -2.2495   0.0000   0.0000   0.0000   0.0671
  -4.800  -0.2790   0.00776   0.00205  -0.0525  0.6128  0.0084  -2.1099   0.0000   0.0000   0.0000   0.0534
  -4.600  -0.2572   0.00771   0.00196  -0.0524  0.6025  0.0091  -1.9740   0.0000   0.0000   0.0000   0.0376
  -4.400  -0.2352   0.00765   0.00188  -0.0524  0.5901  0.0099  -1.8408   0.0000   0.0000   0.0000   0.0185
  -4.200  -0.2130   0.00757   0.00180  -0.0524  0.5805  0.0107  -1.7102   0.0000   0.0000   0.0000  -0.0051
  -4.000  -0.1905   0.00748   0.00173  -0.0524  0.5795  0.0117  -1.5820   0.0000   0.0000   0.0000  -0.0348
  -3.800  -0.1679   0.00740   0.00165  -0.0525  0.5779  0.0128  -1.4570   0.0000   0.0000   0.0000  -0.0726
  -3.600  -0.1462   0.00721   0.00153  -0.0525  0.5756  0.0264  -1.3378   0.0000   0.0000   0.0000  -0.1195
  -3.400  -0.1239   0.00713   0.00146  -0.0525  0.5721  0.0341  -1.2197   0.0000   0.0000   0.0000  -0.1853
  -3.200  -0.1022   0.00697   0.00136  -0.0524  0.5674  0.0488  -1.1067   0.0000   0.0000   0.0000  -0.2761
  -3.000  -0.0808   0.00679   0.00126  -0.0523  0.5616  0.0748  -0.9974   0.0000   0.0000   0.0000  -0.4126
  -2.800  -0.0602   0.00651   0.00114  -0.0522  0.5552  0.1216  -0.8928   0.0000   0.0000   0.0000  -0.6350
  -2.600  -0.0441   0.00561   0.00088  -0.0515  0.5479  0.2951  -0.8013   0.0000   0.0000   0.0000  -0.9414
  -2.400  -0.0207   0.00569   0.00084  -0.0517  0.5391  0.2840  -0.6897   0.0000   0.0000   0.0000  -2.2876
  -2.200   0.0016   0.00562   0.00080  -0.0517  0.5314  0.2994  -0.6377   0.0000   0.0000   0.0000  32.8103
  -2.000   0.0237   0.00547   0.00076  -0.0517  0.5298  0.3333  -0.5874   0.0000   0.0000   0.0000   2.4649
  -1.800   0.0463   0.00538   0.00074  -0.0518  0.5289  0.3557  -0.5421   0.0000   0.0000   0.0000   1.3823
  -1.600   0.0682   0.00523   0.00071  -0.0519  0.5275  0.3898  -0.5416   0.0000   0.0000   0.0000   1.0163
  -1.400   0.0913   0.00521   0.00070  -0.0520  0.5257  0.3948  -0.5572   0.0000   0.0000   0.0000   0.8234
  -1.200   0.1140   0.00517   0.00069  -0.0521  0.5230  0.4145  -0.5727   0.0000   0.0000   0.0000   0.7091
  -1.000   0.1364   0.00512   0.00068  -0.0522  0.5192  0.4297  -0.5881   0.0000   0.0000   0.0000   0.6332
  -0.800   0.1591   0.00512   0.00068  -0.0522  0.5143  0.4376  -0.6036   0.0000   0.0000   0.0000   0.5785
  -0.600   0.1817   0.00514   0.00068  -0.0523  0.5085  0.4420  -0.6191   0.0000   0.0000   0.0000   0.5373
  -0.400   0.2045   0.00517   0.00068  -0.0524  0.5019  0.4444  -0.6347   0.0000   0.0000   0.0000   0.5053
  -0.200   0.2272   0.00520   0.00068  -0.0525  0.4940  0.4501  -0.6522   0.0000   0.0000   0.0000   0.4797
   0.000   0.2498   0.00519   0.00069  -0.0526  0.4864  0.4671  -0.6698   0.0000   0.0000   0.0000   0.4588
   0.200   0.2723   0.00516   0.00070  -0.0527  0.4806  0.4797  -0.6873   0.0000   0.0000   0.0000   0.4414
   0.400   0.2952   0.00513   0.00071  -0.0528  0.4802  0.4886  -0.7052   0.0000   0.0000   0.0000   0.4266
   0.600   0.3183   0.00512   0.00073  -0.0530  0.4795  0.4938  -0.7233   0.0000   0.0000   0.0000   0.4139
   0.800   0.3414   0.00513   0.00074  -0.0531  0.4784  0.4964  -0.7414   0.0000   0.0000   0.0000   0.4029
   1.000   0.3645   0.00514   0.00075  -0.0533  0.4765  0.5002  -0.7595   0.0000   0.0000   0.0000   0.3933
   1.200   0.3873   0.00514   0.00077  -0.0534  0.4734  0.5127  -0.7776   0.0000   0.0000   0.0000   0.3848
   1.400   0.4097   0.00514   0.00079  -0.0535  0.4679  0.5261  -0.7955   0.0000   0.0000   0.0000   0.3773
   1.600   0.4317   0.00518   0.00081  -0.0535  0.4590  0.5360  -0.8132   0.0000   0.0000   0.0000   0.3704
   1.800   0.4539   0.00523   0.00084  -0.0535  0.4484  0.5435  -0.8310   0.0000   0.0000   0.0000   0.3642
   2.000   0.4764   0.00527   0.00086  -0.0536  0.4379  0.5481  -0.8489   0.0000   0.0000   0.0000   0.3587
   2.200   0.4991   0.00531   0.00089  -0.0537  0.4317  0.5505  -0.8675   0.0000   0.0000   0.0000   0.3536
   2.400   0.5220   0.00530   0.00092  -0.0538  0.4308  0.5647  -0.8882   0.0000   0.0000   0.0000   0.3490
   2.600   0.5447   0.00528   0.00095  -0.0540  0.4294  0.5796  -0.9093   0.0000   0.0000   0.0000   0.3448
   2.800   0.5672   0.00527   0.00098  -0.0540  0.4270  0.5917  -0.9350   0.0000   0.0000   0.0000   0.3408
   3.000   0.5896   0.00531   0.00102  -0.0541  0.4213  0.5997  -0.9617   0.0000   0.0000   0.0000   0.3372
   3.400   0.6334   0.00546   0.00112  -0.0541  0.4018  0.6220  -1.0218   0.0000   0.0000   0.0000   0.3304
   3.600   0.6552   0.00550   0.00117  -0.0541  0.3874  0.6378  -1.0573   0.0000   0.0000   0.0000   0.3274
   3.800   0.6776   0.00551   0.00122  -0.0541  0.3837  0.6496  -1.0950   0.0000   0.0000   0.0000   0.3246
   4.200   0.7221   0.00556   0.00133  -0.0542  0.3750  0.6796  -1.1824   0.0000   0.0000   0.0000   0.3195
   4.400   0.7241   0.00727   0.00209  -0.0511  0.1682  0.6960  -1.2051   0.0000   0.0000   0.0000   0.3147
   4.600   0.7369   0.00811   0.00254  -0.0496  0.0868  0.7064  -1.2447   0.0000   0.0000   0.0000   0.3113
   5.000   0.7717   0.00887   0.00310  -0.0481  0.0235  0.7516  -1.3502   0.0000   0.0000   0.0000   0.3060
   5.200   0.7922   0.00896   0.00323  -0.0479  0.0192  0.7769  -1.4153   0.0000   0.0000   0.0000   0.3039
   5.400   0.8109   0.00919   0.00345  -0.0473  0.0085  0.8001  -1.4618   0.0000   0.0000   0.0000   0.3016
   5.600   0.8307   0.00925   0.00359  -0.0469  0.0078  0.8342  -1.5271   0.0000   0.0000   0.0000   0.2995
   5.800   0.8500   0.00932   0.00374  -0.0463  0.0071  0.8688  -1.6304   0.0000   0.0000   0.0000   0.2974
   6.000   0.8680   0.00937   0.00388  -0.0455  0.0065  0.9132  -1.7491   0.0000   0.0000   0.0000   0.2951
   6.200   0.8856   0.00943   0.00403  -0.0445  0.0061  0.9642  -1.8696   0.0000   0.0000   0.0000   0.2927
   6.400   0.9122   0.00959   0.00419  -0.0456  0.0055  0.9839  -2.0195   0.0000   0.0000   0.0000   0.2923
   6.800   0.9683   0.00994   0.00451  -0.0486  0.0045  1.0000  -2.3413   0.0000   0.0000   0.0000   0.2920
   7.000   0.9877   0.01010   0.00465  -0.0482  0.0040  1.0000  -2.4805   0.0000   0.0000   0.0000   0.2904
   7.200   1.0072   0.01026   0.00479  -0.0478  0.0036  1.0000  -2.6232   0.0000   0.0000   0.0000   0.2888
   7.400   1.0267   0.01042   0.00494  -0.0474  0.0032  1.0000  -2.7695   0.0000   0.0000   0.0000   0.2872
   7.600   1.0461   0.01059   0.00516  -0.0470  0.0043  1.0000  -2.9054   0.0000   0.0000   0.0000   0.2858
   7.800   1.0655   0.01076   0.00533  -0.0466  0.0044  1.0000  -3.0512   0.0000   0.0000   0.0000   0.2843
   8.000   1.0848   0.01094   0.00550  -0.0462  0.0039  1.0000  -3.2040   0.0000   0.0000   0.0000   0.2829
   8.200   1.1040   0.01112   0.00567  -0.0458  0.0034  1.0000  -3.3613   0.0000   0.0000   0.0000   0.2815
   8.400   1.1232   0.01131   0.00585  -0.0454  0.0029  1.0000  -3.5236   0.0000   0.0000   0.0000   0.2802
   8.600   1.1423   0.01150   0.00603  -0.0449  0.0024  1.0000  -3.7187   0.0000   0.0000   0.0000   0.2789
   8.800   1.1611   0.01170   0.00622  -0.0444  0.0021  1.0000  -3.9466   0.0000   0.0000   0.0000   0.2776
   9.000   1.1796   0.01191   0.00645  -0.0439  0.0021  1.0000  -4.1800   0.0000   0.0000   0.0000   0.2763
   9.200   1.1978   0.01214   0.00668  -0.0433  0.0021  1.0000  -4.4164   0.0000   0.0000   0.0000   0.2749
   9.400   1.2157   0.01238   0.00694  -0.0427  0.0021  1.0000  -4.6551   0.0000   0.0000   0.0000   0.2736
   9.600   1.2332   0.01263   0.00721  -0.0421  0.0020  1.0000  -4.8950   0.0000   0.0000   0.0000   0.2723
   9.800   1.2504   0.01290   0.00750  -0.0413  0.0020  1.0000  -5.1351   0.0000   0.0000   0.0000   0.2709
  10.000   1.2669   0.01320   0.00782  -0.0405  0.0020  1.0000  -5.3733   0.0000   0.0000   0.0000   0.2696
  10.200   1.2827   0.01352   0.00819  -0.0395  0.0020  1.0000  -5.6068   0.0000   0.0000   0.0000   0.2681
  10.400   1.2974   0.01389   0.00861  -0.0383  0.0020  1.0000  -5.8306   0.0000   0.0000   0.0000   0.2666
  10.600   1.3103   0.01434   0.00913  -0.0369  0.0020  1.0000  -6.0373   0.0000   0.0000   0.0000   0.2649
  10.800   1.3186   0.01486   0.00975  -0.0345  0.0020  1.0000  -6.2067   0.0000   0.0000   0.0000   0.2626
  11.000   1.3217   0.01554   0.01055  -0.0313  0.0020  1.0000  -6.3311   0.0000   0.0000   0.0000   0.2598
  11.200   1.3193   0.01651   0.01167  -0.0274  0.0020  1.0000  -6.3985   0.0000   0.0000   0.0000   0.2566


