xflr5 v6.61

 Calculated polar for: E209  (13.72%)

 1 1 Reynolds number fixed          Mach number fixed         

 xtrf =   1.000 (top)        1.000 (bottom)
 Mach =   0.000     Re =     1.000 e 6     Ncrit =   9.000

  alpha     CL        CD       CDp       Cm    Top Xtr Bot Xtr   Cpmin    Chinge    XCp    
 ------- -------- --------- --------- -------- ------- ------- -------- --------- ---------
  -9.000  -0.7278   0.01861   0.01414  -0.0528  0.9887  0.0063  -5.9806   0.0000   0.0000   0.0000   0.1674
  -8.800  -0.7045   0.01673   0.01196  -0.0538  0.9868  0.0056  -5.8448   0.0000   0.0000   0.0000   0.1636
  -8.600  -0.6816   0.01579   0.01091  -0.0544  0.9837  0.0053  -5.6257   0.0000   0.0000   0.0000   0.1603
  -8.400  -0.6589   0.01497   0.01000  -0.0549  0.9793  0.0051  -5.4010   0.0000   0.0000   0.0000   0.1570
  -8.200  -0.6331   0.01414   0.00907  -0.0560  0.9757  0.0050  -5.1609   0.0000   0.0000   0.0000   0.1519
  -8.000  -0.6072   0.01333   0.00815  -0.0571  0.9722  0.0049  -4.9241   0.0000   0.0000   0.0000   0.1464
  -7.800  -0.5857   0.01260   0.00731  -0.0573  0.9669  0.0049  -4.7105   0.0000   0.0000   0.0000   0.1429
  -7.600  -0.5685   0.01195   0.00654  -0.0563  0.9565  0.0049  -4.5153   0.0000   0.0000   0.0000   0.1417
  -7.400  -0.5441   0.01124   0.00567  -0.0569  0.9484  0.0053  -4.2681   0.0000   0.0000   0.0000   0.1363
  -7.200  -0.5241   0.01074   0.00503  -0.0564  0.9339  0.0069  -4.0440   0.0000   0.0000   0.0000   0.1334
  -7.000  -0.4996   0.01044   0.00472  -0.0569  0.9170  0.0088  -3.8001   0.0000   0.0000   0.0000   0.1272
  -6.800  -0.4777   0.01024   0.00447  -0.0568  0.8930  0.0101  -3.5698   0.0000   0.0000   0.0000   0.1222
  -6.600  -0.4572   0.01009   0.00427  -0.0565  0.8700  0.0113  -3.3927   0.0000   0.0000   0.0000   0.1177
  -6.400  -0.4371   0.00998   0.00407  -0.0560  0.8479  0.0123  -3.2263   0.0000   0.0000   0.0000   0.1131
  -6.200  -0.4171   0.00989   0.00389  -0.0556  0.8252  0.0132  -3.0659   0.0000   0.0000   0.0000   0.1081
  -6.000  -0.3968   0.00979   0.00372  -0.0552  0.8056  0.0137  -2.9082   0.0000   0.0000   0.0000   0.1023
  -5.800  -0.3769   0.00968   0.00352  -0.0547  0.7839  0.0185  -2.7824   0.0000   0.0000   0.0000   0.0963
  -5.600  -0.3558   0.00966   0.00333  -0.0544  0.7660  0.0134  -2.6549   0.0000   0.0000   0.0000   0.0885
  -4.200  -0.2114   0.00860   0.00227  -0.0527  0.6760  0.0824  -1.7162   0.0000   0.0000   0.0000  -0.0085
  -4.000  -0.1902   0.00841   0.00215  -0.0525  0.6693  0.0986  -1.5922   0.0000   0.0000   0.0000  -0.0360
  -3.800  -0.1693   0.00821   0.00202  -0.0524  0.6609  0.1225  -1.4721   0.0000   0.0000   0.0000  -0.0695
  -3.600  -0.1485   0.00806   0.00191  -0.0522  0.6511  0.1466  -1.3548   0.0000   0.0000   0.0000  -0.1120
  -3.400  -0.1283   0.00788   0.00180  -0.0519  0.6379  0.1792  -1.2417   0.0000   0.0000   0.0000  -0.1663
  -3.200  -0.1097   0.00735   0.00162  -0.0516  0.6294  0.2674  -1.1363   0.0000   0.0000   0.0000  -0.2324
  -3.000  -0.0918   0.00672   0.00151  -0.0511  0.6259  0.3911  -1.0339   0.0000   0.0000   0.0000  -0.3207
  -2.800  -0.0707   0.00656   0.00152  -0.0510  0.6207  0.4396  -0.9245   0.0000   0.0000   0.0000  -0.4872
  -2.600  -0.0480   0.00657   0.00149  -0.0510  0.6147  0.4439  -0.8111   0.0000   0.0000   0.0000  -0.8342
  -2.400  -0.0255   0.00659   0.00140  -0.0510  0.6080  0.4465  -0.6960   0.0000   0.0000   0.0000  -1.7881
  -2.200  -0.0038   0.00657   0.00136  -0.0509  0.6002  0.4622  -0.6419   0.0000   0.0000   0.0000  -13.5315
  -2.000   0.0178   0.00655   0.00136  -0.0508  0.5906  0.4774  -0.5918   0.0000   0.0000   0.0000   3.1387
  -1.800   0.0400   0.00657   0.00136  -0.0508  0.5812  0.4863  -0.5490   0.0000   0.0000   0.0000   1.5351
  -1.600   0.0629   0.00656   0.00134  -0.0509  0.5793  0.4917  -0.5378   0.0000   0.0000   0.0000   1.0665
  -1.400   0.0860   0.00656   0.00133  -0.0510  0.5775  0.4953  -0.5533   0.0000   0.0000   0.0000   0.8476
  -1.200   0.1090   0.00657   0.00132  -0.0511  0.5750  0.4972  -0.5689   0.0000   0.0000   0.0000   0.7214
  -1.000   0.1317   0.00654   0.00129  -0.0512  0.5717  0.5048  -0.5843   0.0000   0.0000   0.0000   0.6400
  -0.800   0.1540   0.00650   0.00128  -0.0512  0.5674  0.5177  -0.5996   0.0000   0.0000   0.0000   0.5830
  -0.600   0.1761   0.00648   0.00128  -0.0512  0.5621  0.5279  -0.6148   0.0000   0.0000   0.0000   0.5404
  -0.400   0.1982   0.00649   0.00128  -0.0512  0.5556  0.5359  -0.6300   0.0000   0.0000   0.0000   0.5073
  -0.200   0.2202   0.00653   0.00129  -0.0511  0.5476  0.5419  -0.6471   0.0000   0.0000   0.0000   0.4808
   0.000   0.2424   0.00659   0.00130  -0.0511  0.5389  0.5465  -0.6643   0.0000   0.0000   0.0000   0.4592
   0.200   0.2648   0.00666   0.00133  -0.0512  0.5310  0.5496  -0.6815   0.0000   0.0000   0.0000   0.4412
   0.400   0.2875   0.00664   0.00134  -0.0513  0.5295  0.5588  -0.6992   0.0000   0.0000   0.0000   0.4260
   0.600   0.3100   0.00659   0.00135  -0.0513  0.5283  0.5736  -0.7168   0.0000   0.0000   0.0000   0.4130
   0.800   0.3325   0.00655   0.00138  -0.0514  0.5266  0.5849  -0.7345   0.0000   0.0000   0.0000   0.4018
   1.000   0.3551   0.00653   0.00140  -0.0514  0.5244  0.5941  -0.7523   0.0000   0.0000   0.0000   0.3919
   1.200   0.3778   0.00654   0.00142  -0.0515  0.5214  0.6007  -0.7702   0.0000   0.0000   0.0000   0.3833
   1.400   0.4004   0.00655   0.00144  -0.0516  0.5178  0.6080  -0.7881   0.0000   0.0000   0.0000   0.3756
   1.600   0.4224   0.00653   0.00147  -0.0516  0.5135  0.6270  -0.8057   0.0000   0.0000   0.0000   0.3686
   1.800   0.4442   0.00653   0.00150  -0.0515  0.5082  0.6414  -0.8232   0.0000   0.0000   0.0000   0.3623
   2.000   0.4660   0.00657   0.00153  -0.0514  0.5014  0.6522  -0.8408   0.0000   0.0000   0.0000   0.3566
   2.200   0.4876   0.00663   0.00157  -0.0513  0.4925  0.6664  -0.8593   0.0000   0.0000   0.0000   0.3513
   2.400   0.5087   0.00666   0.00165  -0.0512  0.4835  0.6860  -0.8787   0.0000   0.0000   0.0000   0.3464
   2.600   0.5309   0.00666   0.00170  -0.0512  0.4799  0.7013  -0.8996   0.0000   0.0000   0.0000   0.3420
   2.800   0.5532   0.00662   0.00173  -0.0512  0.4782  0.7202  -0.9245   0.0000   0.0000   0.0000   0.3380
   3.000   0.5750   0.00657   0.00178  -0.0511  0.4757  0.7427  -0.9508   0.0000   0.0000   0.0000   0.3342
   3.200   0.5971   0.00656   0.00182  -0.0510  0.4722  0.7620  -0.9796   0.0000   0.0000   0.0000   0.3307
   3.400   0.6181   0.00653   0.00188  -0.0508  0.4673  0.7894  -1.0095   0.0000   0.0000   0.0000   0.3272
   3.600   0.6390   0.00653   0.00194  -0.0505  0.4611  0.8153  -1.0427   0.0000   0.0000   0.0000   0.3238
   3.800   0.6593   0.00655   0.00200  -0.0500  0.4540  0.8439  -1.0774   0.0000   0.0000   0.0000   0.3206
   4.000   0.6784   0.00658   0.00209  -0.0493  0.4438  0.8786  -1.1160   0.0000   0.0000   0.0000   0.3172
   4.200   0.6974   0.00664   0.00220  -0.0485  0.4334  0.9156  -1.1563   0.0000   0.0000   0.0000   0.3139
   4.400   0.7208   0.00664   0.00236  -0.0487  0.4306  0.9480  -1.2024   0.0000   0.0000   0.0000   0.3117
   4.600   0.7467   0.00672   0.00239  -0.0495  0.4129  0.9687  -1.2604   0.0000   0.0000   0.0000   0.3102
   4.800   0.7715   0.00722   0.00252  -0.0505  0.3490  0.9817  -1.3235   0.0000   0.0000   0.0000   0.3092
   5.000   0.7967   0.00784   0.00278  -0.0517  0.2811  0.9901  -1.3957   0.0000   0.0000   0.0000   0.3085
   5.200   0.8209   0.00862   0.00316  -0.0528  0.2103  0.9973  -1.4666   0.0000   0.0000   0.0000   0.3078
   5.400   0.8395   0.00914   0.00346  -0.0525  0.1706  1.0000  -1.5301   0.0000   0.0000   0.0000   0.3058
   5.600   0.8533   0.00958   0.00373  -0.0511  0.1416  1.0000  -1.5960   0.0000   0.0000   0.0000   0.3029
   5.800   0.8690   0.00991   0.00395  -0.0500  0.1225  1.0000  -1.7072   0.0000   0.0000   0.0000   0.3004
   6.000   0.8851   0.01026   0.00420  -0.0490  0.1026  1.0000  -1.8214   0.0000   0.0000   0.0000   0.2980
   6.200   0.9003   0.01068   0.00447  -0.0479  0.0803  1.0000  -1.9352   0.0000   0.0000   0.0000   0.2956
   6.400   0.9159   0.01109   0.00477  -0.0469  0.0633  1.0000  -2.0528   0.0000   0.0000   0.0000   0.2934
   6.600   0.9335   0.01137   0.00499  -0.0462  0.0519  1.0000  -2.1795   0.0000   0.0000   0.0000   0.2914
   6.800   0.9491   0.01180   0.00532  -0.0452  0.0370  1.0000  -2.3018   0.0000   0.0000   0.0000   0.2893
   7.000   0.9669   0.01207   0.00555  -0.0445  0.0305  1.0000  -2.4348   0.0000   0.0000   0.0000   0.2876
   7.200   0.9832   0.01245   0.00586  -0.0436  0.0220  1.0000  -2.5651   0.0000   0.0000   0.0000   0.2857
   7.400   1.0014   0.01270   0.00609  -0.0431  0.0184  1.0000  -2.7057   0.0000   0.0000   0.0000   0.2840
   7.600   1.0161   0.01317   0.00649  -0.0419  0.0089  1.0000  -2.8373   0.0000   0.0000   0.0000   0.2821
   7.800   1.0434   0.01279   0.00639  -0.0428  0.0307  1.0000  -2.9943   0.0000   0.0000   0.0000   0.2816
   8.000   1.0600   0.01314   0.00671  -0.0420  0.0261  1.0000  -3.1337   0.0000   0.0000   0.0000   0.2799
   8.200   1.0766   0.01347   0.00700  -0.0412  0.0201  1.0000  -3.2781   0.0000   0.0000   0.0000   0.2783
   8.400   1.0935   0.01377   0.00730  -0.0404  0.0169  1.0000  -3.4284   0.0000   0.0000   0.0000   0.2768
   8.600   1.1062   0.01433   0.00778  -0.0390  0.0086  1.0000  -3.5672   0.0000   0.0000   0.0000   0.2749
   8.800   1.1228   0.01463   0.00808  -0.0382  0.0077  1.0000  -3.7259   0.0000   0.0000   0.0000   0.2734
   9.000   1.1387   0.01496   0.00840  -0.0373  0.0068  1.0000  -3.8975   0.0000   0.0000   0.0000   0.2718
   9.200   1.1538   0.01532   0.00874  -0.0363  0.0059  1.0000  -4.1060   0.0000   0.0000   0.0000   0.2702
   9.400   1.1688   0.01567   0.00907  -0.0353  0.0047  1.0000  -4.3126   0.0000   0.0000   0.0000   0.2687
   9.600   1.1830   0.01602   0.00946  -0.0341  0.0034  1.0000  -4.4937   0.0000   0.0000   0.0000   0.2670
   9.800   1.1939   0.01646   0.01000  -0.0322  0.0030  1.0000  -4.7006   0.0000   0.0000   0.0000   0.2649
  10.000   1.2035   0.01696   0.01060  -0.0302  0.0028  1.0000  -4.8938   0.0000   0.0000   0.0000   0.2627
  10.200   1.2122   0.01752   0.01125  -0.0281  0.0027  1.0000  -5.0726   0.0000   0.0000   0.0000   0.2605
  10.400   1.2197   0.01814   0.01196  -0.0260  0.0027  1.0000  -5.2401   0.0000   0.0000   0.0000   0.2584
  10.600   1.2266   0.01883   0.01274  -0.0239  0.0027  1.0000  -5.4013   0.0000   0.0000   0.0000   0.2562
  10.800   1.2322   0.01959   0.01358  -0.0218  0.0027  1.0000  -5.5549   0.0000   0.0000   0.0000   0.2541
  11.000   1.2371   0.02043   0.01451  -0.0197  0.0027  1.0000  -5.7036   0.0000   0.0000   0.0000   0.2520
  11.200   1.2415   0.02136   0.01552  -0.0178  0.0028  1.0000  -5.8494   0.0000   0.0000   0.0000   0.2501
  11.400   1.2448   0.02238   0.01663  -0.0160  0.0028  1.0000  -5.9889   0.0000   0.0000   0.0000   0.2482
  11.600   1.2475   0.02351   0.01783  -0.0143  0.0028  1.0000  -6.1245   0.0000   0.0000   0.0000   0.2465
  11.800   1.2503   0.02473   0.01913  -0.0128  0.0029  1.0000  -6.2611   0.0000   0.0000   0.0000   0.2449
  12.000   1.2510   0.02620   0.02074  -0.0114  0.0030  1.0000  -6.3950   0.0000   0.0000   0.0000   0.2435
  12.200   1.2524   0.02771   0.02234  -0.0103  0.0031  1.0000  -6.5258   0.0000   0.0000   0.0000   0.2422
  12.400   1.2541   0.02928   0.02399  -0.0093  0.0032  1.0000  -6.6554   0.0000   0.0000   0.0000   0.2410
  12.600   1.2544   0.03104   0.02584  -0.0085  0.0033  1.0000  -6.7731   0.0000   0.0000   0.0000   0.2400
  12.800   1.2548   0.03279   0.02767  -0.0078  0.0034  1.0000  -6.8888   0.0000   0.0000   0.0000   0.2390
  13.000   1.2531   0.03485   0.02982  -0.0072  0.0035  1.0000  -6.9866   0.0000   0.0000   0.0000   0.2382
  13.200   1.2519   0.03693   0.03200  -0.0067  0.0036  1.0000  -7.0832   0.0000   0.0000   0.0000   0.2374
  13.400   1.2483   0.03938   0.03456  -0.0063  0.0038  1.0000  -7.1539   0.0000   0.0000   0.0000   0.2367
  13.600   1.2435   0.04199   0.03729  -0.0059  0.0040  1.0000  -7.2015   0.0000   0.0000   0.0000   0.2360
  13.800   1.2345   0.04505   0.04052  -0.0053  0.0043  1.0000  -7.1801   0.0000   0.0000   0.0000   0.2351
  14.000   1.2136   0.04951   0.04527  -0.0042  0.0049  1.0000  -6.9605   0.0000   0.0000   0.0000   0.2338
  14.200   1.1803   0.05564   0.05186  -0.0018  0.0063  1.0000  -6.4836   0.0000   0.0000   0.0000   0.2316
  14.400   1.1496   0.06229   0.05886  -0.0012  0.0075  1.0000  -6.1170   0.0000   0.0000   0.0000   0.2308
  14.600   1.1229   0.06880   0.06561  -0.0026  0.0081  1.0000  -5.8953   0.0000   0.0000   0.0000   0.2316
  14.800   1.0928   0.07619   0.07325  -0.0048  0.0085  1.0000  -5.6419   0.0000   0.0000   0.0000   0.2332
  15.000   1.0657   0.08340   0.08066  -0.0078  0.0087  1.0000  -5.4411   0.0000   0.0000   0.0000   0.2358


