xflr5 v6.61

 Calculated polar for: E209  (13.72%)

 1 1 Reynolds number fixed          Mach number fixed         

 xtrf =   1.000 (top)        1.000 (bottom)
 Mach =   0.000     Re =     0.500 e 6     Ncrit =   9.000

  alpha     CL        CD       CDp       Cm    Top Xtr Bot Xtr   Cpmin    Chinge    XCp    
 ------- -------- --------- --------- -------- ------- ------- -------- --------- ---------
 -10.000  -0.6686   0.04330   0.04005  -0.0628  1.0000  0.0105  -4.7871   0.0000   0.0000   0.0000   0.1446
  -9.800  -0.6889   0.04170   0.03836  -0.0588  1.0000  0.0105  -4.8410   0.0000   0.0000   0.0000   0.1536
  -9.600  -0.7065   0.03944   0.03595  -0.0551  1.0000  0.0103  -4.9147   0.0000   0.0000   0.0000   0.1614
  -9.400  -0.7218   0.03691   0.03323  -0.0515  1.0000  0.0100  -4.9980   0.0000   0.0000   0.0000   0.1685
  -9.200  -0.7345   0.03421   0.03031  -0.0477  1.0000  0.0096  -5.0857   0.0000   0.0000   0.0000   0.1751
  -9.000  -0.7443   0.03142   0.02727  -0.0440  1.0000  0.0093  -5.1725   0.0000   0.0000   0.0000   0.1812
  -8.800  -0.7445   0.02785   0.02334  -0.0420  0.9989  0.0088  -5.2671   0.0000   0.0000   0.0000   0.1840
  -8.600  -0.7275   0.02373   0.01876  -0.0429  0.9957  0.0082  -5.3192   0.0000   0.0000   0.0000   0.1816
  -8.400  -0.7075   0.02087   0.01554  -0.0436  0.9922  0.0079  -5.2778   0.0000   0.0000   0.0000   0.1791
  -8.200  -0.6841   0.01879   0.01320  -0.0446  0.9889  0.0077  -5.1608   0.0000   0.0000   0.0000   0.1756
  -8.000  -0.6578   0.01724   0.01143  -0.0460  0.9865  0.0078  -4.9852   0.0000   0.0000   0.0000   0.1709
  -7.800  -0.6353   0.01611   0.01016  -0.0465  0.9816  0.0080  -4.7914   0.0000   0.0000   0.0000   0.1678
  -7.600  -0.6094   0.01517   0.00909  -0.0476  0.9768  0.0084  -4.5549   0.0000   0.0000   0.0000   0.1629
  -7.400  -0.5801   0.01439   0.00820  -0.0493  0.9732  0.0094  -4.2820   0.0000   0.0000   0.0000   0.1561
  -7.200  -0.5483   0.01384   0.00761  -0.0516  0.9705  0.0110  -4.0224   0.0000   0.0000   0.0000   0.1471
  -7.000  -0.5254   0.01355   0.00732  -0.0518  0.9628  0.0123  -3.7789   0.0000   0.0000   0.0000   0.1427
  -6.800  -0.4982   0.01342   0.00722  -0.0529  0.9561  0.0132  -3.4973   0.0000   0.0000   0.0000   0.1350
  -6.600  -0.4680   0.01342   0.00730  -0.0547  0.9506  0.0137  -3.1950   0.0000   0.0000   0.0000   0.1244
  -6.400  -0.4470   0.01285   0.00665  -0.0546  0.9395  0.0149  -3.0512   0.0000   0.0000   0.0000   0.1192
  -6.200  -0.4223   0.01213   0.00577  -0.0551  0.9279  0.0173  -2.9547   0.0000   0.0000   0.0000   0.1108
  -6.000  -0.3983   0.01135   0.00500  -0.0556  0.9148  0.0318  -2.9080   0.0000   0.0000   0.0000   0.1018
  -5.800  -0.3738   0.01092   0.00462  -0.0562  0.8978  0.0474  -2.7663   0.0000   0.0000   0.0000   0.0910
  -5.600  -0.3499   0.01074   0.00426  -0.0564  0.8795  0.0508  -2.6360   0.0000   0.0000   0.0000   0.0799
  -5.400  -0.3286   0.01047   0.00399  -0.0563  0.8583  0.0650  -2.4939   0.0000   0.0000   0.0000   0.0699
  -5.200  -0.3081   0.01030   0.00378  -0.0559  0.8386  0.0758  -2.3567   0.0000   0.0000   0.0000   0.0596
  -4.800  -0.2689   0.00985   0.00336  -0.0550  0.7992  0.1148  -2.0949   0.0000   0.0000   0.0000   0.0364
  -4.600  -0.2493   0.00971   0.00319  -0.0545  0.7797  0.1325  -1.9672   0.0000   0.0000   0.0000   0.0220
  -4.400  -0.2297   0.00945   0.00300  -0.0542  0.7650  0.1622  -1.8429   0.0000   0.0000   0.0000   0.0048
  -4.200  -0.2110   0.00905   0.00280  -0.0537  0.7513  0.2171  -1.7238   0.0000   0.0000   0.0000  -0.0141
  -4.000  -0.1944   0.00851   0.00259  -0.0530  0.7365  0.3071  -1.6127   0.0000   0.0000   0.0000  -0.0325
  -3.800  -0.1763   0.00814   0.00257  -0.0525  0.7243  0.3951  -1.4989   0.0000   0.0000   0.0000  -0.0574
  -3.600  -0.1560   0.00801   0.00259  -0.0521  0.7154  0.4394  -1.3806   0.0000   0.0000   0.0000  -0.0944
  -3.400  -0.1343   0.00801   0.00254  -0.0519  0.7050  0.4530  -1.2618   0.0000   0.0000   0.0000  -0.1479
  -3.200  -0.1134   0.00799   0.00249  -0.0516  0.6938  0.4679  -1.1482   0.0000   0.0000   0.0000  -0.2172
  -3.000  -0.0922   0.00803   0.00248  -0.0514  0.6803  0.4816  -1.0356   0.0000   0.0000   0.0000  -0.3212
  -2.800  -0.0697   0.00803   0.00246  -0.0514  0.6755  0.4909  -0.9221   0.0000   0.0000   0.0000  -0.5027
  -2.600  -0.0472   0.00806   0.00244  -0.0513  0.6692  0.4961  -0.8064   0.0000   0.0000   0.0000  -0.8584
  -2.400  -0.0253   0.00802   0.00230  -0.0512  0.6615  0.5069  -0.6897   0.0000   0.0000   0.0000  -1.8094
  -2.200  -0.0039   0.00798   0.00224  -0.0510  0.6528  0.5176  -0.6391   0.0000   0.0000   0.0000  -13.0457
  -2.000   0.0173   0.00800   0.00223  -0.0508  0.6428  0.5273  -0.5894   0.0000   0.0000   0.0000   3.2235
  -1.800   0.0392   0.00807   0.00224  -0.0507  0.6312  0.5353  -0.5495   0.0000   0.0000   0.0000   1.5585
  -1.600   0.0617   0.00806   0.00221  -0.0507  0.6280  0.5414  -0.5353   0.0000   0.0000   0.0000   1.0796
  -1.400   0.0843   0.00807   0.00220  -0.0508  0.6244  0.5466  -0.5504   0.0000   0.0000   0.0000   0.8566
  -1.200   0.1069   0.00809   0.00219  -0.0508  0.6199  0.5502  -0.5656   0.0000   0.0000   0.0000   0.7278
  -1.000   0.1290   0.00803   0.00215  -0.0508  0.6147  0.5619  -0.5806   0.0000   0.0000   0.0000   0.6450
  -0.800   0.1507   0.00799   0.00213  -0.0507  0.6090  0.5727  -0.5954   0.0000   0.0000   0.0000   0.5865
  -0.600   0.1724   0.00799   0.00213  -0.0505  0.6029  0.5817  -0.6103   0.0000   0.0000   0.0000   0.5428
  -0.400   0.1941   0.00803   0.00214  -0.0504  0.5961  0.5901  -0.6255   0.0000   0.0000   0.0000   0.5089
  -0.200   0.2162   0.00812   0.00217  -0.0504  0.5876  0.5974  -0.6423   0.0000   0.0000   0.0000   0.4818
   0.000   0.2388   0.00822   0.00223  -0.0505  0.5801  0.6024  -0.6594   0.0000   0.0000   0.0000   0.4598
   0.200   0.2610   0.00815   0.00221  -0.0505  0.5781  0.6139  -0.6767   0.0000   0.0000   0.0000   0.4415
   0.400   0.2828   0.00808   0.00222  -0.0504  0.5751  0.6276  -0.6938   0.0000   0.0000   0.0000   0.4260
   0.600   0.3047   0.00804   0.00223  -0.0503  0.5713  0.6388  -0.7111   0.0000   0.0000   0.0000   0.4126
   0.800   0.3269   0.00804   0.00225  -0.0503  0.5671  0.6484  -0.7284   0.0000   0.0000   0.0000   0.4011
   1.200   0.3706   0.00802   0.00231  -0.0501  0.5577  0.6755  -0.7629   0.0000   0.0000   0.0000   0.3822
   1.400   0.3919   0.00802   0.00234  -0.0499  0.5526  0.6917  -0.7799   0.0000   0.0000   0.0000   0.3741
   1.600   0.4135   0.00808   0.00238  -0.0498  0.5467  0.7050  -0.7970   0.0000   0.0000   0.0000   0.3670
   1.800   0.4344   0.00811   0.00246  -0.0495  0.5393  0.7255  -0.8136   0.0000   0.0000   0.0000   0.3604
   2.000   0.4559   0.00823   0.00261  -0.0494  0.5309  0.7459  -0.8304   0.0000   0.0000   0.0000   0.3546
   2.200   0.4773   0.00819   0.00266  -0.0492  0.5290  0.7674  -0.8500   0.0000   0.0000   0.0000   0.3491
   2.400   0.4982   0.00813   0.00271  -0.0488  0.5270  0.7932  -0.8694   0.0000   0.0000   0.0000   0.3439
   2.600   0.5187   0.00806   0.00277  -0.0484  0.5241  0.8203  -0.8897   0.0000   0.0000   0.0000   0.3390
   2.800   0.5391   0.00802   0.00282  -0.0479  0.5204  0.8499  -0.9130   0.0000   0.0000   0.0000   0.3344
   3.200   0.5812   0.00799   0.00297  -0.0470  0.5113  0.9167  -0.9658   0.0000   0.0000   0.0000   0.3261
   3.400   0.6076   0.00804   0.00302  -0.0477  0.5048  0.9448  -0.9999   0.0000   0.0000   0.0000   0.3236
   3.600   0.6374   0.00813   0.00308  -0.0493  0.4970  0.9640  -1.0399   0.0000   0.0000   0.0000   0.3223
   3.800   0.6680   0.00830   0.00319  -0.0512  0.4869  0.9767  -1.0834   0.0000   0.0000   0.0000   0.3215
   4.000   0.6986   0.00844   0.00332  -0.0531  0.4797  0.9869  -1.1347   0.0000   0.0000   0.0000   0.3206
   4.200   0.7327   0.00843   0.00346  -0.0557  0.4768  0.9931  -1.1914   0.0000   0.0000   0.0000   0.3205
   4.400   0.7662   0.00844   0.00351  -0.0583  0.4724  0.9995  -1.2543   0.0000   0.0000   0.0000   0.3203
   4.600   0.7862   0.00848   0.00356  -0.0579  0.4671  1.0000  -1.3096   0.0000   0.0000   0.0000   0.3177
   4.800   0.8046   0.00854   0.00361  -0.0572  0.4607  1.0000  -1.3719   0.0000   0.0000   0.0000   0.3149
   5.000   0.8221   0.00864   0.00363  -0.0563  0.4503  1.0000  -1.4334   0.0000   0.0000   0.0000   0.3121
   5.200   0.8382   0.00883   0.00370  -0.0551  0.4310  1.0000  -1.4934   0.0000   0.0000   0.0000   0.3092
   5.400   0.8567   0.00884   0.00369  -0.0544  0.4156  1.0000  -1.5585   0.0000   0.0000   0.0000   0.3068
   5.600   0.8707   0.00912   0.00375  -0.0530  0.3837  1.0000  -1.6587   0.0000   0.0000   0.0000   0.3038
   5.800   0.8871   0.00936   0.00385  -0.0520  0.3547  1.0000  -1.7750   0.0000   0.0000   0.0000   0.3014
   6.000   0.9029   0.00967   0.00402  -0.0509  0.3269  1.0000  -1.8913   0.0000   0.0000   0.0000   0.2989
   6.200   0.9178   0.01006   0.00423  -0.0497  0.2957  1.0000  -2.0072   0.0000   0.0000   0.0000   0.2965
   6.400   0.9324   0.01052   0.00449  -0.0485  0.2608  1.0000  -2.1245   0.0000   0.0000   0.0000   0.2942
   6.600   0.9445   0.01118   0.00487  -0.0470  0.2150  1.0000  -2.2349   0.0000   0.0000   0.0000   0.2917
   6.800   0.9573   0.01181   0.00528  -0.0457  0.1773  1.0000  -2.3498   0.0000   0.0000   0.0000   0.2894
   7.000   0.9720   0.01231   0.00565  -0.0446  0.1510  1.0000  -2.4733   0.0000   0.0000   0.0000   0.2873
   7.200   0.9870   0.01278   0.00599  -0.0436  0.1284  1.0000  -2.6004   0.0000   0.0000   0.0000   0.2854
   7.400   1.0012   0.01331   0.00639  -0.0424  0.1074  1.0000  -2.7268   0.0000   0.0000   0.0000   0.2834
   7.600   1.0170   0.01372   0.00672  -0.0415  0.0933  1.0000  -2.8618   0.0000   0.0000   0.0000   0.2816
   7.800   1.0391   0.01368   0.00697  -0.0415  0.1070  1.0000  -2.9968   0.0000   0.0000   0.0000   0.2804
   8.000   1.0555   0.01404   0.00729  -0.0406  0.0969  1.0000  -3.1341   0.0000   0.0000   0.0000   0.2788
   8.200   1.0691   0.01457   0.00773  -0.0394  0.0817  1.0000  -3.2661   0.0000   0.0000   0.0000   0.2769
   8.400   1.0846   0.01496   0.00809  -0.0385  0.0726  1.0000  -3.4094   0.0000   0.0000   0.0000   0.2753
   8.600   1.0976   0.01549   0.00853  -0.0372  0.0609  1.0000  -3.5460   0.0000   0.0000   0.0000   0.2735
   8.800   1.1120   0.01591   0.00893  -0.0362  0.0524  1.0000  -3.6914   0.0000   0.0000   0.0000   0.2718
   9.000   1.1226   0.01654   0.00945  -0.0346  0.0406  1.0000  -3.8251   0.0000   0.0000   0.0000   0.2698
   9.200   1.1350   0.01702   0.00990  -0.0332  0.0325  1.0000  -3.9696   0.0000   0.0000   0.0000   0.2680
   9.400   1.1416   0.01770   0.01050  -0.0309  0.0229  1.0000  -4.1057   0.0000   0.0000   0.0000   0.2656
   9.600   1.1492   0.01831   0.01107  -0.0289  0.0156  1.0000  -4.2703   0.0000   0.0000   0.0000   0.2633
   9.800   1.1556   0.01901   0.01172  -0.0267  0.0099  1.0000  -4.4266   0.0000   0.0000   0.0000   0.2610
  10.000   1.1660   0.01953   0.01226  -0.0251  0.0082  1.0000  -4.6055   0.0000   0.0000   0.0000   0.2592
  10.200   1.1753   0.02012   0.01287  -0.0235  0.0072  1.0000  -4.7773   0.0000   0.0000   0.0000   0.2573
  10.400   1.1834   0.02079   0.01359  -0.0218  0.0064  1.0000  -4.9368   0.0000   0.0000   0.0000   0.2554
  10.600   1.1906   0.02154   0.01439  -0.0201  0.0058  1.0000  -5.0872   0.0000   0.0000   0.0000   0.2536
  10.800   1.1974   0.02236   0.01528  -0.0185  0.0054  1.0000  -5.2524   0.0000   0.0000   0.0000   0.2518
  11.000   1.2034   0.02326   0.01627  -0.0169  0.0051  1.0000  -5.4231   0.0000   0.0000   0.0000   0.2501
  11.200   1.2084   0.02426   0.01736  -0.0154  0.0049  1.0000  -5.5828   0.0000   0.0000   0.0000   0.2484
  11.400   1.2124   0.02540   0.01860  -0.0140  0.0048  1.0000  -5.7315   0.0000   0.0000   0.0000   0.2469
  11.600   1.2155   0.02669   0.01999  -0.0127  0.0047  1.0000  -5.8705   0.0000   0.0000   0.0000   0.2454
  11.800   1.2181   0.02810   0.02150  -0.0116  0.0047  1.0000  -6.0032   0.0000   0.0000   0.0000   0.2441
  12.000   1.2193   0.02970   0.02321  -0.0106  0.0046  1.0000  -6.1238   0.0000   0.0000   0.0000   0.2429
  12.200   1.2199   0.03143   0.02505  -0.0097  0.0046  1.0000  -6.2371   0.0000   0.0000   0.0000   0.2419
  12.400   1.2173   0.03349   0.02730  -0.0089  0.0045  1.0000  -6.3463   0.0000   0.0000   0.0000   0.2408
  12.600   1.2148   0.03562   0.02956  -0.0083  0.0046  1.0000  -6.4355   0.0000   0.0000   0.0000   0.2399
  12.800   1.2126   0.03783   0.03188  -0.0078  0.0046  1.0000  -6.5205   0.0000   0.0000   0.0000   0.2391
  13.000   1.2091   0.04029   0.03446  -0.0075  0.0046  1.0000  -6.5904   0.0000   0.0000   0.0000   0.2385
  13.200   1.2054   0.04279   0.03708  -0.0072  0.0046  1.0000  -6.6544   0.0000   0.0000   0.0000   0.2378
  13.400   1.2011   0.04541   0.03982  -0.0069  0.0047  1.0000  -6.7079   0.0000   0.0000   0.0000   0.2373
  13.600   1.1955   0.04823   0.04277  -0.0068  0.0047  1.0000  -6.7479   0.0000   0.0000   0.0000   0.2368
  13.800   1.1908   0.05093   0.04560  -0.0067  0.0048  1.0000  -6.7869   0.0000   0.0000   0.0000   0.2363
  14.000   1.1856   0.05373   0.04853  -0.0065  0.0049  1.0000  -6.8164   0.0000   0.0000   0.0000   0.2358
  14.200   1.1787   0.05682   0.05176  -0.0067  0.0050  1.0000  -6.8289   0.0000   0.0000   0.0000   0.2355
  14.400   1.1724   0.05974   0.05482  -0.0066  0.0051  1.0000  -6.8380   0.0000   0.0000   0.0000   0.2351
  14.600   1.1664   0.06281   0.05805  -0.0066  0.0052  1.0000  -6.8394   0.0000   0.0000   0.0000   0.2347
  14.800   1.1599   0.06617   0.06157  -0.0068  0.0053  1.0000  -6.8288   0.0000   0.0000   0.0000   0.2345
  15.000   1.1509   0.07010   0.06567  -0.0075  0.0054  1.0000  -6.7997   0.0000   0.0000   0.0000   0.2348


