xflr5 v6.61

 Calculated polar for: E209  (13.72%)

 1 1 Reynolds number fixed          Mach number fixed         

 xtrf =   1.000 (top)        1.000 (bottom)
 Mach =   0.000     Re =     2.500 e 6     Ncrit =   9.000

  alpha     CL        CD       CDp       Cm    Top Xtr Bot Xtr   Cpmin    Chinge    XCp    
 ------- -------- --------- --------- -------- ------- ------- -------- --------- ---------
  -7.600  -0.5753   0.00959   0.00451  -0.0551  0.8014  0.0038  -4.6078   0.0000   0.0000   0.0000   0.1451
  -7.400  -0.5566   0.00935   0.00412  -0.0544  0.7755  0.0038  -4.3909   0.0000   0.0000   0.0000   0.1433
  -7.200  -0.5361   0.00913   0.00381  -0.0541  0.7621  0.0039  -4.1603   0.0000   0.0000   0.0000   0.1403
  -7.000  -0.5161   0.00900   0.00357  -0.0537  0.7412  0.0039  -3.9307   0.0000   0.0000   0.0000   0.1373
  -6.800  -0.4952   0.00886   0.00336  -0.0534  0.7242  0.0040  -3.6984   0.0000   0.0000   0.0000   0.1335
  -6.600  -0.4739   0.00872   0.00316  -0.0532  0.7139  0.0051  -3.4776   0.0000   0.0000   0.0000   0.1292
  -6.400  -0.4527   0.00865   0.00303  -0.0530  0.7000  0.0061  -3.3040   0.0000   0.0000   0.0000   0.1244
  -6.200  -0.4314   0.00857   0.00291  -0.0529  0.6823  0.0070  -3.1407   0.0000   0.0000   0.0000   0.1190
  -6.000  -0.4095   0.00846   0.00280  -0.0528  0.6763  0.0078  -2.9804   0.0000   0.0000   0.0000   0.1126
  -5.800  -0.3876   0.00836   0.00268  -0.0528  0.6696  0.0084  -2.8258   0.0000   0.0000   0.0000   0.1055
  -5.600  -0.3657   0.00831   0.00253  -0.0527  0.6601  0.0068  -2.6883   0.0000   0.0000   0.0000   0.0975
  -5.400  -0.3442   0.00825   0.00244  -0.0526  0.6485  0.0075  -2.5390   0.0000   0.0000   0.0000   0.0888
  -5.200  -0.3224   0.00818   0.00234  -0.0525  0.6345  0.0082  -2.3928   0.0000   0.0000   0.0000   0.0786
  -5.000  -0.3002   0.00808   0.00224  -0.0525  0.6291  0.0089  -2.2489   0.0000   0.0000   0.0000   0.0665
  -4.800  -0.2781   0.00798   0.00215  -0.0526  0.6257  0.0096  -2.1083   0.0000   0.0000   0.0000   0.0524
  -4.600  -0.2560   0.00789   0.00206  -0.0525  0.6197  0.0104  -1.9716   0.0000   0.0000   0.0000   0.0360
  -4.400  -0.2341   0.00783   0.00197  -0.0525  0.6113  0.0112  -1.8387   0.0000   0.0000   0.0000   0.0169
  -4.200  -0.2123   0.00778   0.00188  -0.0524  0.6010  0.0122  -1.7094   0.0000   0.0000   0.0000  -0.0061
  -4.000  -0.1903   0.00773   0.00180  -0.0524  0.5893  0.0132  -1.5828   0.0000   0.0000   0.0000  -0.0349
  -3.600  -0.1466   0.00743   0.00159  -0.0523  0.5794  0.0357  -1.3402   0.0000   0.0000   0.0000  -0.1178
  -3.400  -0.1246   0.00726   0.00149  -0.0523  0.5779  0.0477  -1.2233   0.0000   0.0000   0.0000  -0.1815
  -3.200  -0.1029   0.00706   0.00139  -0.0523  0.5755  0.0697  -1.1102   0.0000   0.0000   0.0000  -0.2709
  -3.000  -0.0815   0.00685   0.00128  -0.0522  0.5720  0.0987  -1.0005   0.0000   0.0000   0.0000  -0.4058
  -2.800  -0.0604   0.00660   0.00118  -0.0521  0.5674  0.1433  -0.8942   0.0000   0.0000   0.0000  -0.6306
  -2.600  -0.0454   0.00557   0.00091  -0.0514  0.5622  0.3437  -0.8053   0.0000   0.0000   0.0000  -0.9024
  -2.400  -0.0216   0.00573   0.00087  -0.0515  0.5558  0.3186  -0.6914   0.0000   0.0000   0.0000  -2.1756
  -2.200   0.0001   0.00562   0.00083  -0.0515  0.5481  0.3443  -0.6394   0.0000   0.0000   0.0000  744.5380
  -2.000   0.0215   0.00548   0.00080  -0.0514  0.5389  0.3854  -0.5898   0.0000   0.0000   0.0000   2.6698
  -1.800   0.0441   0.00546   0.00079  -0.0515  0.5309  0.3938  -0.5445   0.0000   0.0000   0.0000   1.4302
  -1.600   0.0666   0.00537   0.00077  -0.0516  0.5297  0.4219  -0.5406   0.0000   0.0000   0.0000   1.0315
  -1.400   0.0893   0.00531   0.00076  -0.0517  0.5287  0.4357  -0.5561   0.0000   0.0000   0.0000   0.8324
  -1.200   0.1124   0.00529   0.00076  -0.0518  0.5273  0.4406  -0.5717   0.0000   0.0000   0.0000   0.7132
  -1.000   0.1355   0.00529   0.00075  -0.0520  0.5254  0.4432  -0.5874   0.0000   0.0000   0.0000   0.6345
  -0.800   0.1585   0.00530   0.00074  -0.0521  0.5227  0.4449  -0.6032   0.0000   0.0000   0.0000   0.5788
  -0.600   0.1813   0.00529   0.00074  -0.0522  0.5188  0.4579  -0.6188   0.0000   0.0000   0.0000   0.5375
  -0.400   0.2037   0.00527   0.00074  -0.0523  0.5140  0.4730  -0.6342   0.0000   0.0000   0.0000   0.5056
  -0.200   0.2260   0.00526   0.00075  -0.0523  0.5084  0.4839  -0.6516   0.0000   0.0000   0.0000   0.4800
   0.000   0.2485   0.00528   0.00076  -0.0524  0.5018  0.4910  -0.6691   0.0000   0.0000   0.0000   0.4589
   0.200   0.2712   0.00531   0.00077  -0.0524  0.4938  0.4945  -0.6867   0.0000   0.0000   0.0000   0.4413
   0.400   0.2939   0.00535   0.00078  -0.0525  0.4862  0.4965  -0.7044   0.0000   0.0000   0.0000   0.4265
   0.600   0.3168   0.00538   0.00079  -0.0527  0.4806  0.4977  -0.7222   0.0000   0.0000   0.0000   0.4137
   0.800   0.3398   0.00537   0.00080  -0.0528  0.4800  0.5079  -0.7402   0.0000   0.0000   0.0000   0.4027
   1.000   0.3627   0.00534   0.00083  -0.0530  0.4792  0.5213  -0.7583   0.0000   0.0000   0.0000   0.3931
   1.200   0.3855   0.00531   0.00085  -0.0531  0.4778  0.5324  -0.7763   0.0000   0.0000   0.0000   0.3846
   1.400   0.4082   0.00529   0.00086  -0.0532  0.4756  0.5409  -0.7944   0.0000   0.0000   0.0000   0.3770
   1.600   0.4310   0.00531   0.00088  -0.0533  0.4716  0.5465  -0.8126   0.0000   0.0000   0.0000   0.3702
   1.800   0.4534   0.00536   0.00090  -0.0534  0.4645  0.5498  -0.8306   0.0000   0.0000   0.0000   0.3641
   2.000   0.4755   0.00542   0.00093  -0.0534  0.4557  0.5588  -0.8484   0.0000   0.0000   0.0000   0.3584
   2.200   0.4976   0.00546   0.00096  -0.0534  0.4459  0.5743  -0.8666   0.0000   0.0000   0.0000   0.3533
   2.400   0.5198   0.00547   0.00100  -0.0534  0.4359  0.5867  -0.8868   0.0000   0.0000   0.0000   0.3486
   2.600   0.5423   0.00548   0.00103  -0.0535  0.4315  0.5967  -0.9077   0.0000   0.0000   0.0000   0.3443
   2.800   0.5652   0.00549   0.00106  -0.0536  0.4304  0.6025  -0.9335   0.0000   0.0000   0.0000   0.3404
   3.000   0.5879   0.00549   0.00110  -0.0538  0.4286  0.6155  -0.9604   0.0000   0.0000   0.0000   0.3368
   3.200   0.6102   0.00549   0.00114  -0.0538  0.4247  0.6328  -0.9903   0.0000   0.0000   0.0000   0.3334
   3.400   0.6323   0.00551   0.00119  -0.0538  0.4187  0.6459  -1.0210   0.0000   0.0000   0.0000   0.3302
   3.600   0.6540   0.00560   0.00124  -0.0538  0.4087  0.6543  -1.0563   0.0000   0.0000   0.0000   0.3271
   3.800   0.6755   0.00568   0.00130  -0.0537  0.3951  0.6719  -1.0928   0.0000   0.0000   0.0000   0.3242
   4.000   0.6972   0.00570   0.00136  -0.0536  0.3845  0.6917  -1.1357   0.0000   0.0000   0.0000   0.3215
   4.200   0.7196   0.00571   0.00142  -0.0537  0.3824  0.7046  -1.1798   0.0000   0.0000   0.0000   0.3190
   4.400   0.7248   0.00714   0.00204  -0.0511  0.2064  0.7253  -1.2065   0.0000   0.0000   0.0000   0.3146
   4.600   0.7372   0.00795   0.00249  -0.0496  0.1241  0.7469  -1.2459   0.0000   0.0000   0.0000   0.3112
   4.800   0.7537   0.00843   0.00279  -0.0487  0.0780  0.7667  -1.2917   0.0000   0.0000   0.0000   0.3084
   5.200   0.7877   0.00910   0.00334  -0.0470  0.0262  0.8238  -1.4099   0.0000   0.0000   0.0000   0.3031
   5.400   0.8071   0.00920   0.00349  -0.0465  0.0194  0.8553  -1.4745   0.0000   0.0000   0.0000   0.3008
   5.600   0.8236   0.00939   0.00373  -0.0454  0.0091  0.8971  -1.5174   0.0000   0.0000   0.0000   0.2982
   5.800   0.8407   0.00944   0.00388  -0.0443  0.0084  0.9497  -1.6068   0.0000   0.0000   0.0000   0.2955
   6.000   0.8659   0.00958   0.00404  -0.0451  0.0076  0.9774  -1.7458   0.0000   0.0000   0.0000   0.2947
   6.200   0.8945   0.00977   0.00421  -0.0467  0.0069  0.9890  -1.8984   0.0000   0.0000   0.0000   0.2946
   7.000   0.9832   0.01047   0.00484  -0.0474  0.0049  1.0000  -2.4689   0.0000   0.0000   0.0000   0.2898
   7.200   1.0026   0.01064   0.00499  -0.0470  0.0044  1.0000  -2.6111   0.0000   0.0000   0.0000   0.2882
   7.400   1.0220   0.01081   0.00515  -0.0466  0.0039  1.0000  -2.7569   0.0000   0.0000   0.0000   0.2867
   7.600   1.0413   0.01098   0.00531  -0.0462  0.0035  1.0000  -2.9063   0.0000   0.0000   0.0000   0.2852
   7.800   1.0606   0.01116   0.00555  -0.0458  0.0052  1.0000  -3.0372   0.0000   0.0000   0.0000   0.2837
   8.000   1.0797   0.01135   0.00574  -0.0453  0.0048  1.0000  -3.1889   0.0000   0.0000   0.0000   0.2823
   8.200   1.0987   0.01154   0.00592  -0.0449  0.0042  1.0000  -3.3451   0.0000   0.0000   0.0000   0.2809
   8.400   1.1177   0.01174   0.00610  -0.0444  0.0036  1.0000  -3.5062   0.0000   0.0000   0.0000   0.2796
   8.600   1.1365   0.01193   0.00629  -0.0440  0.0030  1.0000  -3.6816   0.0000   0.0000   0.0000   0.2783
   8.800   1.1553   0.01213   0.00649  -0.0435  0.0024  1.0000  -3.9056   0.0000   0.0000   0.0000   0.2769
   9.200   1.1914   0.01260   0.00698  -0.0423  0.0021  1.0000  -4.3598   0.0000   0.0000   0.0000   0.2742
   9.400   1.2089   0.01286   0.00727  -0.0416  0.0021  1.0000  -4.5904   0.0000   0.0000   0.0000   0.2729
   9.600   1.2258   0.01315   0.00758  -0.0408  0.0021  1.0000  -4.8199   0.0000   0.0000   0.0000   0.2715
   9.800   1.2421   0.01346   0.00793  -0.0399  0.0020  1.0000  -5.0460   0.0000   0.0000   0.0000   0.2700
  10.000   1.2575   0.01381   0.00833  -0.0389  0.0020  1.0000  -5.2656   0.0000   0.0000   0.0000   0.2685
  10.200   1.2716   0.01421   0.00880  -0.0376  0.0020  1.0000  -5.4735   0.0000   0.0000   0.0000   0.2669
  10.400   1.2835   0.01471   0.00938  -0.0359  0.0020  1.0000  -5.6614   0.0000   0.0000   0.0000   0.2650
  10.600   1.2901   0.01529   0.01007  -0.0333  0.0020  1.0000  -5.8101   0.0000   0.0000   0.0000   0.2625
  10.800   1.2919   0.01605   0.01096  -0.0299  0.0020  1.0000  -5.9175   0.0000   0.0000   0.0000   0.2596
  11.000   1.2876   0.01714   0.01221  -0.0258  0.0020  1.0000  -5.9663   0.0000   0.0000   0.0000   0.2562


