xflr5 v6.61

 Calculated polar for: E209  (13.72%)

 1 1 Reynolds number fixed          Mach number fixed         

 xtrf =   1.000 (top)        1.000 (bottom)
 Mach =   0.000     Re =     1.500 e 6     Ncrit =   9.000

  alpha     CL        CD       CDp       Cm    Top Xtr Bot Xtr   Cpmin    Chinge    XCp    
 ------- -------- --------- --------- -------- ------- ------- -------- --------- ---------
  -9.000  -0.6988   0.01613   0.01189  -0.0599  0.9843  0.0059  -5.9122   0.0000   0.0000   0.0000   0.1541
  -8.800  -0.6789   0.01522   0.01086  -0.0597  0.9795  0.0052  -5.7219   0.0000   0.0000   0.0000   0.1519
  -8.600  -0.6551   0.01472   0.01032  -0.0603  0.9752  0.0048  -5.4672   0.0000   0.0000   0.0000   0.1480
  -8.400  -0.6292   0.01428   0.00985  -0.0612  0.9715  0.0045  -5.1991   0.0000   0.0000   0.0000   0.1429
  -8.200  -0.6092   0.01388   0.00942  -0.0609  0.9649  0.0043  -4.9679   0.0000   0.0000   0.0000   0.1403
  -8.000  -0.5890   0.01341   0.00890  -0.0606  0.9542  0.0042  -4.7456   0.0000   0.0000   0.0000   0.1375
  -7.800  -0.5680   0.01279   0.00820  -0.0605  0.9411  0.0040  -4.5331   0.0000   0.0000   0.0000   0.1340
  -7.600  -0.5507   0.01193   0.00714  -0.0597  0.9156  0.0040  -4.3599   0.0000   0.0000   0.0000   0.1322
  -7.000  -0.5052   0.00969   0.00406  -0.0556  0.8367  0.0054  -3.8510   0.0000   0.0000   0.0000   0.1311
  -6.800  -0.4856   0.00958   0.00386  -0.0551  0.8132  0.0071  -3.6352   0.0000   0.0000   0.0000   0.1279
  -6.600  -0.4652   0.00946   0.00370  -0.0547  0.7948  0.0083  -3.4422   0.0000   0.0000   0.0000   0.1237
  -6.400  -0.4454   0.00936   0.00354  -0.0543  0.7713  0.0094  -3.2766   0.0000   0.0000   0.0000   0.1196
  -6.200  -0.4245   0.00924   0.00338  -0.0540  0.7567  0.0103  -3.1135   0.0000   0.0000   0.0000   0.1142
  -6.000  -0.4043   0.00916   0.00323  -0.0537  0.7366  0.0112  -2.9587   0.0000   0.0000   0.0000   0.1088
  -5.800  -0.3830   0.00906   0.00309  -0.0535  0.7236  0.0119  -2.8072   0.0000   0.0000   0.0000   0.1018
  -5.600  -0.3610   0.00902   0.00293  -0.0534  0.7139  0.0101  -2.6753   0.0000   0.0000   0.0000   0.0935
  -5.400  -0.3399   0.00893   0.00280  -0.0532  0.7010  0.0109  -2.5273   0.0000   0.0000   0.0000   0.0849
  -5.200  -0.3189   0.00887   0.00268  -0.0530  0.6843  0.0117  -2.3836   0.0000   0.0000   0.0000   0.0752
  -5.000  -0.2970   0.00877   0.00257  -0.0530  0.6766  0.0127  -2.2411   0.0000   0.0000   0.0000   0.0630
  -4.800  -0.2750   0.00868   0.00247  -0.0529  0.6701  0.0137  -2.1023   0.0000   0.0000   0.0000   0.0488
  -4.600  -0.2544   0.00846   0.00229  -0.0527  0.6614  0.0264  -1.9704   0.0000   0.0000   0.0000   0.0339
  -4.400  -0.2333   0.00835   0.00217  -0.0526  0.6509  0.0360  -1.8406   0.0000   0.0000   0.0000   0.0156
  -4.200  -0.2123   0.00821   0.00205  -0.0524  0.6376  0.0452  -1.7145   0.0000   0.0000   0.0000  -0.0060
  -4.000  -0.1905   0.00811   0.00195  -0.0523  0.6294  0.0546  -1.5886   0.0000   0.0000   0.0000  -0.0343
  -3.800  -0.1689   0.00792   0.00184  -0.0523  0.6258  0.0687  -1.4665   0.0000   0.0000   0.0000  -0.0696
  -3.600  -0.1474   0.00775   0.00173  -0.0522  0.6200  0.0882  -1.3477   0.0000   0.0000   0.0000  -0.1148
  -3.400  -0.1261   0.00760   0.00164  -0.0521  0.6127  0.1091  -1.2319   0.0000   0.0000   0.0000  -0.1748
  -3.200  -0.1052   0.00742   0.00153  -0.0520  0.6048  0.1353  -1.1201   0.0000   0.0000   0.0000  -0.2568
  -3.000  -0.0846   0.00720   0.00142  -0.0518  0.5954  0.1758  -1.0119   0.0000   0.0000   0.0000  -0.3766
  -2.800  -0.0672   0.00652   0.00122  -0.0513  0.5854  0.3029  -0.9150   0.0000   0.0000   0.0000  -0.5293
  -2.600  -0.0487   0.00600   0.00117  -0.0509  0.5801  0.4221  -0.8140   0.0000   0.0000   0.0000  -0.8142
  -2.400  -0.0258   0.00596   0.00110  -0.0510  0.5787  0.4276  -0.6994   0.0000   0.0000   0.0000  -1.7622
  -2.200  -0.0030   0.00592   0.00108  -0.0511  0.5767  0.4390  -0.6422   0.0000   0.0000   0.0000  -17.0928
  -2.000   0.0200   0.00592   0.00106  -0.0512  0.5738  0.4430  -0.5905   0.0000   0.0000   0.0000   2.8444
  -1.800   0.0430   0.00593   0.00104  -0.0513  0.5699  0.4450  -0.5459   0.0000   0.0000   0.0000   1.4571
  -1.600   0.0655   0.00591   0.00102  -0.0513  0.5653  0.4568  -0.5398   0.0000   0.0000   0.0000   1.0412
  -1.400   0.0877   0.00589   0.00101  -0.0513  0.5598  0.4710  -0.5549   0.0000   0.0000   0.0000   0.8396
  -1.200   0.1097   0.00588   0.00100  -0.0513  0.5527  0.4818  -0.5700   0.0000   0.0000   0.0000   0.7198
  -1.000   0.1319   0.00590   0.00100  -0.0513  0.5432  0.4893  -0.5852   0.0000   0.0000   0.0000   0.6398
  -0.800   0.1544   0.00594   0.00100  -0.0513  0.5338  0.4931  -0.6004   0.0000   0.0000   0.0000   0.5827
  -0.600   0.1773   0.00596   0.00100  -0.0515  0.5299  0.4957  -0.6160   0.0000   0.0000   0.0000   0.5397
  -0.400   0.2005   0.00597   0.00100  -0.0516  0.5290  0.4972  -0.6318   0.0000   0.0000   0.0000   0.5065
  -0.200   0.2233   0.00594   0.00100  -0.0517  0.5277  0.5066  -0.6494   0.0000   0.0000   0.0000   0.4802
   0.000   0.2461   0.00590   0.00100  -0.0518  0.5259  0.5195  -0.6671   0.0000   0.0000   0.0000   0.4589
   0.200   0.2687   0.00587   0.00102  -0.0519  0.5234  0.5288  -0.6847   0.0000   0.0000   0.0000   0.4412
   0.400   0.2913   0.00586   0.00103  -0.0520  0.5201  0.5367  -0.7024   0.0000   0.0000   0.0000   0.4262
   0.600   0.3139   0.00587   0.00104  -0.0521  0.5161  0.5434  -0.7201   0.0000   0.0000   0.0000   0.4133
   0.800   0.3365   0.00590   0.00106  -0.0521  0.5113  0.5480  -0.7379   0.0000   0.0000   0.0000   0.4022
   1.000   0.3590   0.00595   0.00108  -0.0522  0.5058  0.5505  -0.7556   0.0000   0.0000   0.0000   0.3924
   1.200   0.3810   0.00597   0.00109  -0.0522  0.4989  0.5657  -0.7731   0.0000   0.0000   0.0000   0.3838
   1.400   0.4029   0.00598   0.00113  -0.0521  0.4900  0.5801  -0.7905   0.0000   0.0000   0.0000   0.3761
   1.600   0.4249   0.00601   0.00117  -0.0521  0.4815  0.5904  -0.8079   0.0000   0.0000   0.0000   0.3692
   1.800   0.4477   0.00601   0.00120  -0.0522  0.4799  0.5982  -0.8261   0.0000   0.0000   0.0000   0.3630
   2.000   0.4706   0.00601   0.00122  -0.0524  0.4788  0.6034  -0.8444   0.0000   0.0000   0.0000   0.3575
   2.200   0.4932   0.00598   0.00124  -0.0525  0.4768  0.6229  -0.8635   0.0000   0.0000   0.0000   0.3524
   2.400   0.5155   0.00595   0.00128  -0.0525  0.4732  0.6384  -0.8839   0.0000   0.0000   0.0000   0.3477
   2.600   0.5378   0.00596   0.00131  -0.0525  0.4684  0.6496  -0.9048   0.0000   0.0000   0.0000   0.3434
   3.000   0.5814   0.00603   0.00139  -0.0524  0.4547  0.6810  -0.9558   0.0000   0.0000   0.0000   0.3355
   3.200   0.6028   0.00607   0.00145  -0.0523  0.4444  0.6976  -0.9844   0.0000   0.0000   0.0000   0.3320
   3.400   0.6246   0.00613   0.00151  -0.0522  0.4346  0.7111  -1.0147   0.0000   0.0000   0.0000   0.3287
   3.600   0.6463   0.00610   0.00157  -0.0522  0.4311  0.7369  -1.0493   0.0000   0.0000   0.0000   0.3256
   3.800   0.6686   0.00609   0.00162  -0.0522  0.4294  0.7543  -1.0858   0.0000   0.0000   0.0000   0.3228
   4.000   0.6901   0.00606   0.00169  -0.0520  0.4264  0.7819  -1.1283   0.0000   0.0000   0.0000   0.3199
   4.400   0.7292   0.00628   0.00191  -0.0511  0.3805  0.8362  -1.2132   0.0000   0.0000   0.0000   0.3142
   4.600   0.7396   0.00706   0.00223  -0.0491  0.2775  0.8699  -1.2515   0.0000   0.0000   0.0000   0.3104
   4.800   0.7506   0.00775   0.00262  -0.0472  0.2009  0.9109  -1.2904   0.0000   0.0000   0.0000   0.3066
   5.000   0.7658   0.00826   0.00296  -0.0459  0.1541  0.9534  -1.3451   0.0000   0.0000   0.0000   0.3036
   5.200   0.7889   0.00878   0.00327  -0.0465  0.1135  0.9759  -1.4138   0.0000   0.0000   0.0000   0.3024
   5.600   0.8423   0.00963   0.00383  -0.0493  0.0611  0.9952  -1.5661   0.0000   0.0000   0.0000   0.3015
   5.800   0.8649   0.00999   0.00408  -0.0497  0.0442  1.0000  -1.6851   0.0000   0.0000   0.0000   0.3003
   6.000   0.8808   0.01033   0.00433  -0.0486  0.0294  1.0000  -1.7976   0.0000   0.0000   0.0000   0.2978
   6.200   0.8982   0.01059   0.00453  -0.0478  0.0213  1.0000  -1.9178   0.0000   0.0000   0.0000   0.2956
   6.400   0.9171   0.01077   0.00469  -0.0473  0.0189  1.0000  -2.0460   0.0000   0.0000   0.0000   0.2938
   6.600   0.9331   0.01116   0.00501  -0.0463  0.0090  1.0000  -2.1670   0.0000   0.0000   0.0000   0.2916
   6.800   0.9521   0.01135   0.00519  -0.0458  0.0084  1.0000  -2.3012   0.0000   0.0000   0.0000   0.2899
   7.000   0.9711   0.01154   0.00536  -0.0453  0.0078  1.0000  -2.4385   0.0000   0.0000   0.0000   0.2882
   7.200   0.9899   0.01174   0.00555  -0.0448  0.0072  1.0000  -2.5787   0.0000   0.0000   0.0000   0.2866
   7.400   1.0087   0.01195   0.00575  -0.0443  0.0067  1.0000  -2.7220   0.0000   0.0000   0.0000   0.2850
   7.600   1.0273   0.01217   0.00595  -0.0438  0.0061  1.0000  -2.8684   0.0000   0.0000   0.0000   0.2835
   7.800   1.0477   0.01226   0.00615  -0.0436  0.0082  1.0000  -3.0003   0.0000   0.0000   0.0000   0.2822
   8.000   1.0662   0.01248   0.00637  -0.0431  0.0078  1.0000  -3.1485   0.0000   0.0000   0.0000   0.2807
   8.200   1.0844   0.01271   0.00660  -0.0425  0.0071  1.0000  -3.3008   0.0000   0.0000   0.0000   0.2793
   8.400   1.1021   0.01298   0.00685  -0.0419  0.0064  1.0000  -3.4558   0.0000   0.0000   0.0000   0.2778
   8.600   1.1194   0.01326   0.00712  -0.0412  0.0057  1.0000  -3.6148   0.0000   0.0000   0.0000   0.2763
   8.800   1.1367   0.01353   0.00738  -0.0405  0.0049  1.0000  -3.7853   0.0000   0.0000   0.0000   0.2749
   9.000   1.1542   0.01378   0.00762  -0.0398  0.0039  1.0000  -4.0054   0.0000   0.0000   0.0000   0.2735
   9.200   1.1713   0.01405   0.00791  -0.0390  0.0027  1.0000  -4.2091   0.0000   0.0000   0.0000   0.2721
  10.400   1.2246   0.01760   0.01212  -0.0263  0.0022  1.0000  -5.2383   0.0000   0.0000   0.0000   0.2585
  10.600   1.2298   0.01835   0.01294  -0.0239  0.0022  1.0000  -5.3836   0.0000   0.0000   0.0000   0.2562
  10.800   1.2348   0.01910   0.01377  -0.0216  0.0023  1.0000  -5.5314   0.0000   0.0000   0.0000   0.2539
  11.000   1.2405   0.01988   0.01460  -0.0196  0.0023  1.0000  -5.6859   0.0000   0.0000   0.0000   0.2519
  11.200   1.2465   0.02068   0.01546  -0.0178  0.0024  1.0000  -5.8457   0.0000   0.0000   0.0000   0.2501
  11.400   1.2522   0.02152   0.01636  -0.0162  0.0025  1.0000  -6.0069   0.0000   0.0000   0.0000   0.2483
  11.600   1.2584   0.02239   0.01727  -0.0147  0.0026  1.0000  -6.1723   0.0000   0.0000   0.0000   0.2467
  11.800   1.2638   0.02335   0.01828  -0.0133  0.0027  1.0000  -6.3343   0.0000   0.0000   0.0000   0.2452
  12.000   1.2703   0.02432   0.01934  -0.0121  0.0030  1.0000  -6.5221   0.0000   0.0000   0.0000   0.2439
  12.200   1.2746   0.02551   0.02058  -0.0109  0.0032  1.0000  -6.6780   0.0000   0.0000   0.0000   0.2426
  12.400   1.2777   0.02686   0.02201  -0.0098  0.0034  1.0000  -6.8197   0.0000   0.0000   0.0000   0.2413
  12.600   1.2775   0.02855   0.02380  -0.0087  0.0037  1.0000  -6.9272   0.0000   0.0000   0.0000   0.2401
  12.800   1.2705   0.03092   0.02631  -0.0074  0.0041  1.0000  -6.9528   0.0000   0.0000   0.0000   0.2387


